<?xml version="1.0" encoding="UTF-8"?>

<!-- generated on Tue Oct 24 19:29:23 2017 by SUMO netconvert Version 0.30.0
<?xml version="1.0" encoding="UTF-8"?>

<configuration xmlns:xsi="http://www.w3.org/2001/XMLSchema-instance" xsi:noNamespaceSchemaLocation="http://sumo.dlr.de/xsd/netconvertConfiguration.xsd">

    <input>
        <node-files value="rampsHighway.nod.xml"/>
        <edge-files value="rampsHighway.edg.xml"/>
    </input>

    <output>
        <output-file value="rampsHighway.net.xml"/>
    </output>

    <ramp_guessing>
        <ramps.ramp-length value="150"/>
        <ramps.set value="edge_0_1,edge_0_3,edge_1_1,edge_1_3,edge_2_1,edge_2_3"/>
    </ramp_guessing>

</configuration>
-->

<net version="0.27" xmlns:xsi="http://www.w3.org/2001/XMLSchema-instance" xsi:noNamespaceSchemaLocation="http://sumo.dlr.de/xsd/net_file.xsd">

    <location netOffset="0.00,254.00" convBoundary="0.00,0.00,36004.00,254.00" origBoundary="0.00,-254.00,36004.00,0.00" projParameter="!"/>

    <edge id=":edge_0_1-AddedOffRampNode_0" function="internal">
        <lane id=":edge_0_1-AddedOffRampNode_0_0" index="0" speed="36.11" length="3.36" shape="5748.50,245.75 5751.50,242.45"/>
        <lane id=":edge_0_1-AddedOffRampNode_0_1" index="1" disallow="truck automated" speed="36.11" length="3.36" shape="5748.50,245.75 5751.50,245.75"/>
        <lane id=":edge_0_1-AddedOffRampNode_0_2" index="2" speed="36.11" length="3.36" shape="5748.50,249.05 5751.50,249.05"/>
        <lane id=":edge_0_1-AddedOffRampNode_0_3" index="3" speed="36.11" length="3.36" shape="5748.50,252.35 5751.50,252.35"/>
    </edge>
    <edge id=":edge_0_3-AddedOnRampNode_0" function="internal">
        <lane id=":edge_0_3-AddedOnRampNode_0_0" index="0" speed="36.11" length="3.00" shape="6248.50,245.75 6251.50,245.75"/>
        <lane id=":edge_0_3-AddedOnRampNode_0_1" index="1" disallow="truck automated" speed="36.11" length="3.00" shape="6248.50,249.05 6251.50,249.05"/>
        <lane id=":edge_0_3-AddedOnRampNode_0_2" index="2" speed="36.11" length="3.00" shape="6248.50,252.35 6251.50,252.35"/>
    </edge>
    <edge id=":edge_1_1-AddedOffRampNode_0" function="internal">
        <lane id=":edge_1_1-AddedOffRampNode_0_0" index="0" speed="36.11" length="3.36" shape="17748.50,245.75 17751.50,242.45"/>
        <lane id=":edge_1_1-AddedOffRampNode_0_1" index="1" disallow="truck automated" speed="36.11" length="3.36" shape="17748.50,245.75 17751.50,245.75"/>
        <lane id=":edge_1_1-AddedOffRampNode_0_2" index="2" speed="36.11" length="3.36" shape="17748.50,249.05 17751.50,249.05"/>
        <lane id=":edge_1_1-AddedOffRampNode_0_3" index="3" speed="36.11" length="3.36" shape="17748.50,252.35 17751.50,252.35"/>
    </edge>
    <edge id=":edge_1_3-AddedOnRampNode_0" function="internal">
        <lane id=":edge_1_3-AddedOnRampNode_0_0" index="0" speed="36.11" length="3.00" shape="18248.50,245.75 18251.50,245.75"/>
        <lane id=":edge_1_3-AddedOnRampNode_0_1" index="1" disallow="truck automated" speed="36.11" length="3.00" shape="18248.50,249.05 18251.50,249.05"/>
        <lane id=":edge_1_3-AddedOnRampNode_0_2" index="2" speed="36.11" length="3.00" shape="18248.50,252.35 18251.50,252.35"/>
    </edge>
    <edge id=":edge_2_1-AddedOffRampNode_0" function="internal">
        <lane id=":edge_2_1-AddedOffRampNode_0_0" index="0" speed="36.11" length="3.36" shape="29748.50,245.75 29751.50,242.45"/>
        <lane id=":edge_2_1-AddedOffRampNode_0_1" index="1" disallow="truck automated" speed="36.11" length="3.36" shape="29748.50,245.75 29751.50,245.75"/>
        <lane id=":edge_2_1-AddedOffRampNode_0_2" index="2" speed="36.11" length="3.36" shape="29748.50,249.05 29751.50,249.05"/>
        <lane id=":edge_2_1-AddedOffRampNode_0_3" index="3" speed="36.11" length="3.36" shape="29748.50,252.35 29751.50,252.35"/>
    </edge>
    <edge id=":edge_2_3-AddedOnRampNode_0" function="internal">
        <lane id=":edge_2_3-AddedOnRampNode_0_0" index="0" speed="36.11" length="3.00" shape="30248.50,245.75 30251.50,245.75"/>
        <lane id=":edge_2_3-AddedOnRampNode_0_1" index="1" disallow="truck automated" speed="36.11" length="3.00" shape="30248.50,249.05 30251.50,249.05"/>
        <lane id=":edge_2_3-AddedOnRampNode_0_2" index="2" speed="36.11" length="3.00" shape="30248.50,252.35 30251.50,252.35"/>
    </edge>
    <edge id=":node_0_1_0" function="internal">
        <lane id=":node_0_1_0_0" index="0" speed="36.11" length="0.10" shape="5700.00,245.75 5700.00,245.75"/>
        <lane id=":node_0_1_0_1" index="1" disallow="truck automated" speed="36.11" length="0.10" shape="5700.00,249.05 5700.00,249.05"/>
        <lane id=":node_0_1_0_2" index="2" speed="36.11" length="0.10" shape="5700.00,252.35 5700.00,252.35"/>
    </edge>
    <edge id=":node_0_2_0" function="internal">
        <lane id=":node_0_2_0_0" index="0" speed="30.55" length="6.07" shape="5893.61,242.45 5895.38,242.36 5896.58,242.08 5897.74,241.61 5899.41,240.91"/>
    </edge>
    <edge id=":node_0_2_1" function="internal">
        <lane id=":node_0_2_1_0" index="0" speed="36.11" length="3.33" shape="5893.61,245.75 5896.94,245.75"/>
        <lane id=":node_0_2_1_1" index="1" disallow="truck automated" speed="36.11" length="3.33" shape="5893.61,249.05 5896.94,249.05"/>
        <lane id=":node_0_2_1_2" index="2" speed="36.11" length="3.33" shape="5893.61,252.35 5896.94,252.35"/>
    </edge>
    <edge id=":node_0_3_0" function="internal">
        <lane id=":node_0_3_0_0" index="0" speed="30.55" length="6.07" shape="6100.59,240.91 6102.26,241.61 6103.42,242.08 6104.62,242.36 6106.39,242.45"/>
    </edge>
    <edge id=":node_0_3_1" function="internal">
        <lane id=":node_0_3_1_0" index="0" disallow="truck automated" speed="36.11" length="3.33" shape="6103.06,245.75 6106.39,245.75"/>
        <lane id=":node_0_3_1_1" index="1" speed="36.11" length="3.33" shape="6103.06,249.05 6106.39,249.05"/>
        <lane id=":node_0_3_1_2" index="2" speed="36.11" length="3.33" shape="6103.06,252.35 6106.39,252.35"/>
    </edge>
    <edge id=":node_0_4_0" function="internal">
        <lane id=":node_0_4_0_0" index="0" speed="36.11" length="0.10" shape="6300.00,245.75 6300.00,245.75"/>
        <lane id=":node_0_4_0_1" index="1" disallow="truck automated" speed="36.11" length="0.10" shape="6300.00,249.05 6300.00,249.05"/>
        <lane id=":node_0_4_0_2" index="2" speed="36.11" length="0.10" shape="6300.00,252.35 6300.00,252.35"/>
    </edge>
    <edge id=":node_0_5_0" function="internal">
        <lane id=":node_0_5_0_0" index="0" speed="36.11" length="0.10" shape="12000.00,245.75 12000.00,245.75"/>
        <lane id=":node_0_5_0_1" index="1" disallow="truck automated" speed="36.11" length="0.10" shape="12000.00,249.05 12000.00,249.05"/>
        <lane id=":node_0_5_0_2" index="2" speed="36.11" length="0.10" shape="12000.00,252.35 12000.00,252.35"/>
    </edge>
    <edge id=":node_0_6_0" function="internal">
        <lane id=":node_0_6_0_0" index="0" speed="25.00" length="4.58" shape="6001.65,200.27 6001.80,201.46 6002.26,202.45 6003.01,203.23 6004.08,203.80"/>
    </edge>
    <edge id=":node_0_6_1" function="internal">
        <lane id=":node_0_6_1_0" index="0" speed="25.00" length="2.67" shape="6001.65,200.27 6000.83,201.51 6000.00,201.92 5999.77,201.80"/>
    </edge>
    <edge id=":node_0_6_4" function="internal">
        <lane id=":node_0_6_4_0" index="0" speed="25.00" length="2.15" shape="5999.77,201.80 5999.18,201.51 5998.35,200.27"/>
    </edge>
    <edge id=":node_0_6_2" function="internal">
        <lane id=":node_0_6_2_0" index="0" speed="25.00" length="4.58" shape="5995.92,203.80 5996.99,203.23 5997.74,202.45 5998.20,201.46 5998.35,200.27"/>
    </edge>
    <edge id=":node_0_6_3" function="internal">
        <lane id=":node_0_6_3_0" index="0" speed="25.00" length="8.48" shape="5995.92,203.80 5998.27,202.98 6000.00,202.70 6001.73,202.98 6004.08,203.80"/>
    </edge>
    <edge id=":node_0_7_0" function="internal">
        <lane id=":node_0_7_0_0" index="0" speed="25.00" length="0.10" shape="5998.35,4.00 5998.35,4.00"/>
    </edge>
    <edge id=":node_0_7_1" function="internal">
        <lane id=":node_0_7_1_0" index="0" speed="25.00" length="2.41" shape="5998.35,4.00 5999.17,2.76 6000.00,2.35"/>
    </edge>
    <edge id=":node_0_7_4" function="internal">
        <lane id=":node_0_7_4_0" index="0" speed="25.00" length="2.41" shape="6000.00,2.35 6000.82,2.76 6001.65,4.00"/>
    </edge>
    <edge id=":node_0_7_2" function="internal">
        <lane id=":node_0_7_2_0" index="0" speed="25.00" length="0.10" shape="6001.65,4.00 6001.65,4.00"/>
    </edge>
    <edge id=":node_0_7_3" function="internal">
        <lane id=":node_0_7_3_0" index="0" speed="25.00" length="2.41" shape="6001.65,4.00 6000.83,5.24 6000.00,5.65"/>
    </edge>
    <edge id=":node_0_7_5" function="internal">
        <lane id=":node_0_7_5_0" index="0" speed="25.00" length="2.41" shape="6000.00,5.65 5999.18,5.24 5998.35,4.00"/>
    </edge>
    <edge id=":node_0_8_0" function="internal">
        <lane id=":node_0_8_0_0" index="0" speed="25.00" length="4.82" shape="5998.35,0.00 5999.17,-1.24 6000.00,-1.65 6000.82,-1.24 6001.65,0.00"/>
    </edge>
    <edge id=":node_1_1_0" function="internal">
        <lane id=":node_1_1_0_0" index="0" speed="36.11" length="0.10" shape="17700.00,245.75 17700.00,245.75"/>
        <lane id=":node_1_1_0_1" index="1" disallow="truck automated" speed="36.11" length="0.10" shape="17700.00,249.05 17700.00,249.05"/>
        <lane id=":node_1_1_0_2" index="2" speed="36.11" length="0.10" shape="17700.00,252.35 17700.00,252.35"/>
    </edge>
    <edge id=":node_1_2_0" function="internal">
        <lane id=":node_1_2_0_0" index="0" speed="30.55" length="6.07" shape="17893.61,242.45 17895.38,242.36 17896.58,242.08 17897.74,241.61 17899.41,240.91"/>
    </edge>
    <edge id=":node_1_2_1" function="internal">
        <lane id=":node_1_2_1_0" index="0" speed="36.11" length="3.33" shape="17893.61,245.75 17896.94,245.75"/>
        <lane id=":node_1_2_1_1" index="1" disallow="truck automated" speed="36.11" length="3.33" shape="17893.61,249.05 17896.94,249.05"/>
        <lane id=":node_1_2_1_2" index="2" speed="36.11" length="3.33" shape="17893.61,252.35 17896.94,252.35"/>
    </edge>
    <edge id=":node_1_3_0" function="internal">
        <lane id=":node_1_3_0_0" index="0" speed="30.55" length="6.07" shape="18100.59,240.91 18102.26,241.61 18103.42,242.08 18104.62,242.36 18106.39,242.45"/>
    </edge>
    <edge id=":node_1_3_1" function="internal">
        <lane id=":node_1_3_1_0" index="0" disallow="truck automated" speed="36.11" length="3.33" shape="18103.06,245.75 18106.39,245.75"/>
        <lane id=":node_1_3_1_1" index="1" speed="36.11" length="3.33" shape="18103.06,249.05 18106.39,249.05"/>
        <lane id=":node_1_3_1_2" index="2" speed="36.11" length="3.33" shape="18103.06,252.35 18106.39,252.35"/>
    </edge>
    <edge id=":node_1_4_0" function="internal">
        <lane id=":node_1_4_0_0" index="0" speed="36.11" length="0.10" shape="18300.00,245.75 18300.00,245.75"/>
        <lane id=":node_1_4_0_1" index="1" disallow="truck automated" speed="36.11" length="0.10" shape="18300.00,249.05 18300.00,249.05"/>
        <lane id=":node_1_4_0_2" index="2" speed="36.11" length="0.10" shape="18300.00,252.35 18300.00,252.35"/>
    </edge>
    <edge id=":node_1_5_0" function="internal">
        <lane id=":node_1_5_0_0" index="0" speed="36.11" length="0.10" shape="24000.00,245.75 24000.00,245.75"/>
        <lane id=":node_1_5_0_1" index="1" disallow="truck automated" speed="36.11" length="0.10" shape="24000.00,249.05 24000.00,249.05"/>
        <lane id=":node_1_5_0_2" index="2" speed="36.11" length="0.10" shape="24000.00,252.35 24000.00,252.35"/>
    </edge>
    <edge id=":node_1_6_0" function="internal">
        <lane id=":node_1_6_0_0" index="0" speed="25.00" length="4.58" shape="18001.65,200.27 18001.80,201.46 18002.26,202.45 18003.01,203.23 18004.08,203.80"/>
    </edge>
    <edge id=":node_1_6_1" function="internal">
        <lane id=":node_1_6_1_0" index="0" speed="25.00" length="2.67" shape="18001.65,200.27 18000.82,201.51 18000.00,201.92 17999.77,201.80"/>
    </edge>
    <edge id=":node_1_6_4" function="internal">
        <lane id=":node_1_6_4_0" index="0" speed="25.00" length="2.15" shape="17999.77,201.80 17999.17,201.51 17998.35,200.27"/>
    </edge>
    <edge id=":node_1_6_2" function="internal">
        <lane id=":node_1_6_2_0" index="0" speed="25.00" length="4.58" shape="17995.92,203.80 17996.99,203.23 17997.74,202.45 17998.20,201.46 17998.35,200.27"/>
    </edge>
    <edge id=":node_1_6_3" function="internal">
        <lane id=":node_1_6_3_0" index="0" speed="25.00" length="8.48" shape="17995.92,203.80 17998.27,202.98 18000.00,202.70 18001.73,202.98 18004.08,203.80"/>
    </edge>
    <edge id=":node_1_7_0" function="internal">
        <lane id=":node_1_7_0_0" index="0" speed="25.00" length="0.10" shape="17998.35,4.00 17998.35,4.00"/>
    </edge>
    <edge id=":node_1_7_1" function="internal">
        <lane id=":node_1_7_1_0" index="0" speed="25.00" length="2.41" shape="17998.35,4.00 17999.18,2.76 18000.00,2.35"/>
    </edge>
    <edge id=":node_1_7_4" function="internal">
        <lane id=":node_1_7_4_0" index="0" speed="25.00" length="2.41" shape="18000.00,2.35 18000.83,2.76 18001.65,4.00"/>
    </edge>
    <edge id=":node_1_7_2" function="internal">
        <lane id=":node_1_7_2_0" index="0" speed="25.00" length="0.10" shape="18001.65,4.00 18001.65,4.00"/>
    </edge>
    <edge id=":node_1_7_3" function="internal">
        <lane id=":node_1_7_3_0" index="0" speed="25.00" length="2.41" shape="18001.65,4.00 18000.82,5.24 18000.00,5.65"/>
    </edge>
    <edge id=":node_1_7_5" function="internal">
        <lane id=":node_1_7_5_0" index="0" speed="25.00" length="2.41" shape="18000.00,5.65 17999.17,5.24 17998.35,4.00"/>
    </edge>
    <edge id=":node_1_8_0" function="internal">
        <lane id=":node_1_8_0_0" index="0" speed="25.00" length="4.82" shape="17998.35,0.00 17999.18,-1.24 18000.00,-1.65 18000.83,-1.24 18001.65,0.00"/>
    </edge>
    <edge id=":node_2_1_0" function="internal">
        <lane id=":node_2_1_0_0" index="0" speed="36.11" length="0.10" shape="29700.00,245.75 29700.00,245.75"/>
        <lane id=":node_2_1_0_1" index="1" disallow="truck automated" speed="36.11" length="0.10" shape="29700.00,249.05 29700.00,249.05"/>
        <lane id=":node_2_1_0_2" index="2" speed="36.11" length="0.10" shape="29700.00,252.35 29700.00,252.35"/>
    </edge>
    <edge id=":node_2_2_0" function="internal">
        <lane id=":node_2_2_0_0" index="0" speed="30.55" length="6.07" shape="29893.61,242.45 29895.38,242.36 29896.58,242.08 29897.74,241.61 29899.41,240.91"/>
    </edge>
    <edge id=":node_2_2_1" function="internal">
        <lane id=":node_2_2_1_0" index="0" speed="36.11" length="3.33" shape="29893.61,245.75 29896.94,245.75"/>
        <lane id=":node_2_2_1_1" index="1" disallow="truck automated" speed="36.11" length="3.33" shape="29893.61,249.05 29896.94,249.05"/>
        <lane id=":node_2_2_1_2" index="2" speed="36.11" length="3.33" shape="29893.61,252.35 29896.94,252.35"/>
    </edge>
    <edge id=":node_2_3_0" function="internal">
        <lane id=":node_2_3_0_0" index="0" speed="30.55" length="6.07" shape="30100.59,240.91 30102.26,241.61 30103.42,242.08 30104.62,242.36 30106.39,242.45"/>
    </edge>
    <edge id=":node_2_3_1" function="internal">
        <lane id=":node_2_3_1_0" index="0" disallow="truck automated" speed="36.11" length="3.33" shape="30103.06,245.75 30106.39,245.75"/>
        <lane id=":node_2_3_1_1" index="1" speed="36.11" length="3.33" shape="30103.06,249.05 30106.39,249.05"/>
        <lane id=":node_2_3_1_2" index="2" speed="36.11" length="3.33" shape="30103.06,252.35 30106.39,252.35"/>
    </edge>
    <edge id=":node_2_4_0" function="internal">
        <lane id=":node_2_4_0_0" index="0" speed="36.11" length="0.10" shape="30300.00,245.75 30300.00,245.75"/>
        <lane id=":node_2_4_0_1" index="1" disallow="truck automated" speed="36.11" length="0.10" shape="30300.00,249.05 30300.00,249.05"/>
        <lane id=":node_2_4_0_2" index="2" speed="36.11" length="0.10" shape="30300.00,252.35 30300.00,252.35"/>
    </edge>
    <edge id=":node_2_5_0" function="internal">
        <lane id=":node_2_5_0_0" index="0" speed="36.11" length="0.10" shape="36000.00,245.75 36000.00,245.75"/>
        <lane id=":node_2_5_0_1" index="1" disallow="truck automated" speed="36.11" length="0.10" shape="36000.00,249.05 36000.00,249.05"/>
        <lane id=":node_2_5_0_2" index="2" speed="36.11" length="0.10" shape="36000.00,252.35 36000.00,252.35"/>
    </edge>
    <edge id=":node_2_6_0" function="internal">
        <lane id=":node_2_6_0_0" index="0" speed="25.00" length="4.58" shape="30001.65,200.27 30001.80,201.46 30002.26,202.45 30003.01,203.23 30004.08,203.80"/>
    </edge>
    <edge id=":node_2_6_1" function="internal">
        <lane id=":node_2_6_1_0" index="0" speed="25.00" length="2.67" shape="30001.65,200.27 30000.83,201.51 30000.00,201.92 29999.77,201.80"/>
    </edge>
    <edge id=":node_2_6_4" function="internal">
        <lane id=":node_2_6_4_0" index="0" speed="25.00" length="2.15" shape="29999.77,201.80 29999.17,201.51 29998.35,200.27"/>
    </edge>
    <edge id=":node_2_6_2" function="internal">
        <lane id=":node_2_6_2_0" index="0" speed="25.00" length="4.58" shape="29995.92,203.80 29996.99,203.23 29997.74,202.45 29998.20,201.46 29998.35,200.27"/>
    </edge>
    <edge id=":node_2_6_3" function="internal">
        <lane id=":node_2_6_3_0" index="0" speed="25.00" length="8.48" shape="29995.92,203.80 29998.27,202.98 30000.00,202.70 30001.73,202.98 30004.08,203.80"/>
    </edge>
    <edge id=":node_2_7_0" function="internal">
        <lane id=":node_2_7_0_0" index="0" speed="25.00" length="0.10" shape="29998.35,4.00 29998.35,4.00"/>
    </edge>
    <edge id=":node_2_7_1" function="internal">
        <lane id=":node_2_7_1_0" index="0" speed="25.00" length="2.41" shape="29998.35,4.00 29999.17,2.76 30000.00,2.35"/>
    </edge>
    <edge id=":node_2_7_4" function="internal">
        <lane id=":node_2_7_4_0" index="0" speed="25.00" length="2.41" shape="30000.00,2.35 30000.83,2.76 30001.65,4.00"/>
    </edge>
    <edge id=":node_2_7_2" function="internal">
        <lane id=":node_2_7_2_0" index="0" speed="25.00" length="0.10" shape="30001.65,4.00 30001.65,4.00"/>
    </edge>
    <edge id=":node_2_7_3" function="internal">
        <lane id=":node_2_7_3_0" index="0" speed="25.00" length="2.41" shape="30001.65,4.00 30000.83,5.24 30000.00,5.65"/>
    </edge>
    <edge id=":node_2_7_5" function="internal">
        <lane id=":node_2_7_5_0" index="0" speed="25.00" length="2.41" shape="30000.00,5.65 29999.17,5.24 29998.35,4.00"/>
    </edge>
    <edge id=":node_2_8_0" function="internal">
        <lane id=":node_2_8_0_0" index="0" speed="25.00" length="4.82" shape="29998.35,0.00 29999.17,-1.24 30000.00,-1.65 30000.83,-1.24 30001.65,0.00"/>
    </edge>

    <edge id="begin" from="node_0_0" to="node_0_1" priority="7">
        <lane id="begin_0" index="0" speed="36.11" length="5700.00" shape="-0.00,245.75 5700.00,245.75"/>
        <lane id="begin_1" index="1" disallow="truck automated" speed="36.11" length="5700.00" shape="-0.00,249.05 5700.00,249.05"/>
        <lane id="begin_2" index="2" speed="36.11" length="5700.00" shape="-0.00,252.35 5700.00,252.35"/>
    </edge>
    <edge id="edge_0_1" from="node_0_1" to="edge_0_1-AddedOffRampNode" priority="7">
        <lane id="edge_0_1_0" index="0" speed="36.11" length="48.50" shape="5700.00,245.75 5748.50,245.75"/>
        <lane id="edge_0_1_1" index="1" disallow="truck automated" speed="36.11" length="48.50" shape="5700.00,249.05 5748.50,249.05"/>
        <lane id="edge_0_1_2" index="2" speed="36.11" length="48.50" shape="5700.00,252.35 5748.50,252.35"/>
    </edge>
    <edge id="edge_0_1-AddedOffRampEdge" from="edge_0_1-AddedOffRampNode" to="node_0_2" priority="7">
        <lane id="edge_0_1-AddedOffRampEdge_0" index="0" speed="36.11" length="142.11" shape="5751.50,242.45 5893.61,242.45"/>
        <lane id="edge_0_1-AddedOffRampEdge_1" index="1" disallow="truck automated" speed="36.11" length="142.11" shape="5751.50,245.75 5893.61,245.75"/>
        <lane id="edge_0_1-AddedOffRampEdge_2" index="2" speed="36.11" length="142.11" shape="5751.50,249.05 5893.61,249.05"/>
        <lane id="edge_0_1-AddedOffRampEdge_3" index="3" speed="36.11" length="142.11" shape="5751.50,252.35 5893.61,252.35"/>
    </edge>
    <edge id="edge_0_2" from="node_0_2" to="node_0_3" priority="7">
        <lane id="edge_0_2_0" index="0" speed="36.11" length="206.12" shape="5896.94,245.75 6103.06,245.75"/>
        <lane id="edge_0_2_1" index="1" disallow="truck automated" speed="36.11" length="206.12" shape="5896.94,249.05 6103.06,249.05"/>
        <lane id="edge_0_2_2" index="2" speed="36.11" length="206.12" shape="5896.94,252.35 6103.06,252.35"/>
    </edge>
    <edge id="edge_0_3" from="edge_0_3-AddedOnRampNode" to="node_0_4" priority="7">
        <lane id="edge_0_3_0" index="0" speed="36.11" length="48.50" shape="6251.50,245.75 6300.00,245.75"/>
        <lane id="edge_0_3_1" index="1" disallow="truck automated" speed="36.11" length="48.50" shape="6251.50,249.05 6300.00,249.05"/>
        <lane id="edge_0_3_2" index="2" speed="36.11" length="48.50" shape="6251.50,252.35 6300.00,252.35"/>
    </edge>
    <edge id="edge_0_3-AddedOnRampEdge" from="node_0_3" to="edge_0_3-AddedOnRampNode" priority="7">
        <lane id="edge_0_3-AddedOnRampEdge_0" index="0" speed="36.11" length="142.11" acceleration="1" shape="6106.39,242.45 6248.50,242.45"/>
        <lane id="edge_0_3-AddedOnRampEdge_1" index="1" disallow="truck automated" speed="36.11" length="142.11" shape="6106.39,245.75 6248.50,245.75"/>
        <lane id="edge_0_3-AddedOnRampEdge_2" index="2" speed="36.11" length="142.11" shape="6106.39,249.05 6248.50,249.05"/>
        <lane id="edge_0_3-AddedOnRampEdge_3" index="3" speed="36.11" length="142.11" shape="6106.39,252.35 6248.50,252.35"/>
    </edge>
    <edge id="edge_0_4" from="node_0_4" to="node_0_5" priority="7">
        <lane id="edge_0_4_0" index="0" speed="36.11" length="5700.00" shape="6300.00,245.75 12000.00,245.75"/>
        <lane id="edge_0_4_1" index="1" disallow="truck automated" speed="36.11" length="5700.00" shape="6300.00,249.05 12000.00,249.05"/>
        <lane id="edge_0_4_2" index="2" speed="36.11" length="5700.00" shape="6300.00,252.35 12000.00,252.35"/>
    </edge>
    <edge id="edge_0_5" from="node_0_2" to="node_0_6" priority="7" shape="5900.00,242.45 6000.00,204.00">
        <lane id="edge_0_5_0" index="0" speed="25.00" length="103.40" shape="5899.41,240.91 5995.92,203.80"/>
    </edge>
    <edge id="edge_0_6" from="node_0_6" to="node_0_3" priority="7" shape="6000.00,204.00 6100.00,242.45">
        <lane id="edge_0_6_0" index="0" speed="25.00" length="103.40" shape="6004.08,203.80 6100.59,240.91"/>
    </edge>
    <edge id="edge_0_7" from="node_0_6" to="node_0_7" priority="7">
        <lane id="edge_0_7_0" index="0" speed="25.00" length="196.27" shape="5998.35,200.27 5998.35,4.00"/>
    </edge>
    <edge id="edge_0_8" from="node_0_7" to="node_0_6" priority="7">
        <lane id="edge_0_8_0" index="0" speed="25.00" length="196.27" shape="6001.65,4.00 6001.65,200.27"/>
    </edge>
    <edge id="edge_1_0" from="node_0_5" to="node_1_1" priority="7">
        <lane id="edge_1_0_0" index="0" speed="36.11" length="5700.00" shape="12000.00,245.75 17700.00,245.75"/>
        <lane id="edge_1_0_1" index="1" disallow="truck automated" speed="36.11" length="5700.00" shape="12000.00,249.05 17700.00,249.05"/>
        <lane id="edge_1_0_2" index="2" speed="36.11" length="5700.00" shape="12000.00,252.35 17700.00,252.35"/>
    </edge>
    <edge id="edge_1_1" from="node_1_1" to="edge_1_1-AddedOffRampNode" priority="7">
        <lane id="edge_1_1_0" index="0" speed="36.11" length="48.50" shape="17700.00,245.75 17748.50,245.75"/>
        <lane id="edge_1_1_1" index="1" disallow="truck automated" speed="36.11" length="48.50" shape="17700.00,249.05 17748.50,249.05"/>
        <lane id="edge_1_1_2" index="2" speed="36.11" length="48.50" shape="17700.00,252.35 17748.50,252.35"/>
    </edge>
    <edge id="edge_1_1-AddedOffRampEdge" from="edge_1_1-AddedOffRampNode" to="node_1_2" priority="7">
        <lane id="edge_1_1-AddedOffRampEdge_0" index="0" speed="36.11" length="142.11" shape="17751.50,242.45 17893.61,242.45"/>
        <lane id="edge_1_1-AddedOffRampEdge_1" index="1" disallow="truck automated" speed="36.11" length="142.11" shape="17751.50,245.75 17893.61,245.75"/>
        <lane id="edge_1_1-AddedOffRampEdge_2" index="2" speed="36.11" length="142.11" shape="17751.50,249.05 17893.61,249.05"/>
        <lane id="edge_1_1-AddedOffRampEdge_3" index="3" speed="36.11" length="142.11" shape="17751.50,252.35 17893.61,252.35"/>
    </edge>
    <edge id="edge_1_2" from="node_1_2" to="node_1_3" priority="7">
        <lane id="edge_1_2_0" index="0" speed="36.11" length="206.12" shape="17896.94,245.75 18103.06,245.75"/>
        <lane id="edge_1_2_1" index="1" disallow="truck automated" speed="36.11" length="206.12" shape="17896.94,249.05 18103.06,249.05"/>
        <lane id="edge_1_2_2" index="2" speed="36.11" length="206.12" shape="17896.94,252.35 18103.06,252.35"/>
    </edge>
    <edge id="edge_1_3" from="edge_1_3-AddedOnRampNode" to="node_1_4" priority="7">
        <lane id="edge_1_3_0" index="0" speed="36.11" length="48.50" shape="18251.50,245.75 18300.00,245.75"/>
        <lane id="edge_1_3_1" index="1" disallow="truck automated" speed="36.11" length="48.50" shape="18251.50,249.05 18300.00,249.05"/>
        <lane id="edge_1_3_2" index="2" speed="36.11" length="48.50" shape="18251.50,252.35 18300.00,252.35"/>
    </edge>
    <edge id="edge_1_3-AddedOnRampEdge" from="node_1_3" to="edge_1_3-AddedOnRampNode" priority="7">
        <lane id="edge_1_3-AddedOnRampEdge_0" index="0" speed="36.11" length="142.11" acceleration="1" shape="18106.39,242.45 18248.50,242.45"/>
        <lane id="edge_1_3-AddedOnRampEdge_1" index="1" disallow="truck automated" speed="36.11" length="142.11" shape="18106.39,245.75 18248.50,245.75"/>
        <lane id="edge_1_3-AddedOnRampEdge_2" index="2" speed="36.11" length="142.11" shape="18106.39,249.05 18248.50,249.05"/>
        <lane id="edge_1_3-AddedOnRampEdge_3" index="3" speed="36.11" length="142.11" shape="18106.39,252.35 18248.50,252.35"/>
    </edge>
    <edge id="edge_1_4" from="node_1_4" to="node_1_5" priority="7">
        <lane id="edge_1_4_0" index="0" speed="36.11" length="5700.00" shape="18300.00,245.75 24000.00,245.75"/>
        <lane id="edge_1_4_1" index="1" disallow="truck automated" speed="36.11" length="5700.00" shape="18300.00,249.05 24000.00,249.05"/>
        <lane id="edge_1_4_2" index="2" speed="36.11" length="5700.00" shape="18300.00,252.35 24000.00,252.35"/>
    </edge>
    <edge id="edge_1_5" from="node_1_2" to="node_1_6" priority="7" shape="17900.00,242.45 18000.00,204.00">
        <lane id="edge_1_5_0" index="0" speed="25.00" length="103.40" shape="17899.41,240.91 17995.92,203.80"/>
    </edge>
    <edge id="edge_1_6" from="node_1_6" to="node_1_3" priority="7" shape="18000.00,204.00 18100.00,242.45">
        <lane id="edge_1_6_0" index="0" speed="25.00" length="103.40" shape="18004.08,203.80 18100.59,240.91"/>
    </edge>
    <edge id="edge_1_7" from="node_1_6" to="node_1_7" priority="7">
        <lane id="edge_1_7_0" index="0" speed="25.00" length="196.27" shape="17998.35,200.27 17998.35,4.00"/>
    </edge>
    <edge id="edge_1_8" from="node_1_7" to="node_1_6" priority="7">
        <lane id="edge_1_8_0" index="0" speed="25.00" length="196.27" shape="18001.65,4.00 18001.65,200.27"/>
    </edge>
    <edge id="edge_2_0" from="node_1_5" to="node_2_1" priority="7">
        <lane id="edge_2_0_0" index="0" speed="36.11" length="5700.00" shape="24000.00,245.75 29700.00,245.75"/>
        <lane id="edge_2_0_1" index="1" disallow="truck automated" speed="36.11" length="5700.00" shape="24000.00,249.05 29700.00,249.05"/>
        <lane id="edge_2_0_2" index="2" speed="36.11" length="5700.00" shape="24000.00,252.35 29700.00,252.35"/>
    </edge>
    <edge id="edge_2_1" from="node_2_1" to="edge_2_1-AddedOffRampNode" priority="7">
        <lane id="edge_2_1_0" index="0" speed="36.11" length="48.50" shape="29700.00,245.75 29748.50,245.75"/>
        <lane id="edge_2_1_1" index="1" disallow="truck automated" speed="36.11" length="48.50" shape="29700.00,249.05 29748.50,249.05"/>
        <lane id="edge_2_1_2" index="2" speed="36.11" length="48.50" shape="29700.00,252.35 29748.50,252.35"/>
    </edge>
    <edge id="edge_2_1-AddedOffRampEdge" from="edge_2_1-AddedOffRampNode" to="node_2_2" priority="7">
        <lane id="edge_2_1-AddedOffRampEdge_0" index="0" speed="36.11" length="142.11" shape="29751.50,242.45 29893.61,242.45"/>
        <lane id="edge_2_1-AddedOffRampEdge_1" index="1" disallow="truck automated" speed="36.11" length="142.11" shape="29751.50,245.75 29893.61,245.75"/>
        <lane id="edge_2_1-AddedOffRampEdge_2" index="2" speed="36.11" length="142.11" shape="29751.50,249.05 29893.61,249.05"/>
        <lane id="edge_2_1-AddedOffRampEdge_3" index="3" speed="36.11" length="142.11" shape="29751.50,252.35 29893.61,252.35"/>
    </edge>
    <edge id="edge_2_2" from="node_2_2" to="node_2_3" priority="7">
        <lane id="edge_2_2_0" index="0" speed="36.11" length="206.12" shape="29896.94,245.75 30103.06,245.75"/>
        <lane id="edge_2_2_1" index="1" disallow="truck automated" speed="36.11" length="206.12" shape="29896.94,249.05 30103.06,249.05"/>
        <lane id="edge_2_2_2" index="2" speed="36.11" length="206.12" shape="29896.94,252.35 30103.06,252.35"/>
    </edge>
    <edge id="edge_2_3" from="edge_2_3-AddedOnRampNode" to="node_2_4" priority="7">
        <lane id="edge_2_3_0" index="0" speed="36.11" length="48.50" shape="30251.50,245.75 30300.00,245.75"/>