<?xml version="1.0" encoding="UTF-8"?>

<!-- generated on Thu Oct 12 10:53:12 2017 by SUMO netconvert Version 0.30.0
<?xml version="1.0" encoding="UTF-8"?>

<configuration xmlns:xsi="http://www.w3.org/2001/XMLSchema-instance" xsi:noNamespaceSchemaLocation="http://sumo.dlr.de/xsd/netconvertConfiguration.xsd">

    <input>
        <node-files value="shortDistanceBetweenRampsHighway.nod.xml"/>
        <edge-files value="shortDistanceBetweenRampsHighway.edg.xml"/>
    </input>

    <output>
        <output-file value="shortDistanceBetweenRampsHighway.net.xml"/>
    </output>

    <ramp_guessing>
        <ramps.ramp-length value="150"/>
        <ramps.set value="edge_0_1,edge_0_3,edge_1_1,edge_1_3,edge_2_1,edge_2_3"/>
    </ramp_guessing>

</configuration>
-->

<net version="0.27" xmlns:xsi="http://www.w3.org/2001/XMLSchema-instance" xsi:noNamespaceSchemaLocation="http://sumo.dlr.de/xsd/net_file.xsd">

    <location netOffset="0.00,254.00" convBoundary="0.00,0.00,12004.00,254.00" origBoundary="0.00,-254.00,12004.00,0.00" projParameter="!"/>

    <edge id=":edge_0_1-AddedOffRampNode_0" function="internal">
        <lane id=":edge_0_1-AddedOffRampNode_0_0" index="0" speed="36.11" length="3.29" shape="1748.50,242.45 1751.50,239.15"/>
        <lane id=":edge_0_1-AddedOffRampNode_0_1" index="1" disallow="truck automated" speed="36.11" length="3.29" shape="1748.50,242.45 1751.50,242.45"/>
        <lane id=":edge_0_1-AddedOffRampNode_0_2" index="2" disallow="delivery truck automated" speed="36.11" length="3.29" shape="1748.50,245.75 1751.50,245.75"/>
        <lane id=":edge_0_1-AddedOffRampNode_0_3" index="3" speed="36.11" length="3.29" shape="1748.50,249.05 1751.50,249.05"/>
        <lane id=":edge_0_1-AddedOffRampNode_0_4" index="4" speed="36.11" length="3.29" shape="1748.50,252.35 1751.50,252.35"/>
    </edge>
    <edge id=":edge_0_3-AddedOnRampNode_0" function="internal">
        <lane id=":edge_0_3-AddedOnRampNode_0_0" index="0" speed="36.11" length="3.00" shape="2248.50,242.45 2251.50,242.45"/>
        <lane id=":edge_0_3-AddedOnRampNode_0_1" index="1" disallow="truck automated" speed="36.11" length="3.00" shape="2248.50,245.75 2251.50,245.75"/>
        <lane id=":edge_0_3-AddedOnRampNode_0_2" index="2" disallow="delivery truck automated" speed="36.11" length="3.00" shape="2248.50,249.05 2251.50,249.05"/>
        <lane id=":edge_0_3-AddedOnRampNode_0_3" index="3" speed="36.11" length="3.00" shape="2248.50,252.35 2251.50,252.35"/>
    </edge>
    <edge id=":edge_1_1-AddedOffRampNode_0" function="internal">
        <lane id=":edge_1_1-AddedOffRampNode_0_0" index="0" speed="36.11" length="3.29" shape="5748.50,242.45 5751.50,239.15"/>
        <lane id=":edge_1_1-AddedOffRampNode_0_1" index="1" disallow="truck automated" speed="36.11" length="3.29" shape="5748.50,242.45 5751.50,242.45"/>
        <lane id=":edge_1_1-AddedOffRampNode_0_2" index="2" disallow="delivery truck automated" speed="36.11" length="3.29" shape="5748.50,245.75 5751.50,245.75"/>
        <lane id=":edge_1_1-AddedOffRampNode_0_3" index="3" speed="36.11" length="3.29" shape="5748.50,249.05 5751.50,249.05"/>
        <lane id=":edge_1_1-AddedOffRampNode_0_4" index="4" speed="36.11" length="3.29" shape="5748.50,252.35 5751.50,252.35"/>
    </edge>
    <edge id=":edge_1_3-AddedOnRampNode_0" function="internal">
        <lane id=":edge_1_3-AddedOnRampNode_0_0" index="0" speed="36.11" length="3.00" shape="6248.50,242.45 6251.50,242.45"/>
        <lane id=":edge_1_3-AddedOnRampNode_0_1" index="1" disallow="truck automated" speed="36.11" length="3.00" shape="6248.50,245.75 6251.50,245.75"/>
        <lane id=":edge_1_3-AddedOnRampNode_0_2" index="2" disallow="delivery truck automated" speed="36.11" length="3.00" shape="6248.50,249.05 6251.50,249.05"/>
        <lane id=":edge_1_3-AddedOnRampNode_0_3" index="3" speed="36.11" length="3.00" shape="6248.50,252.35 6251.50,252.35"/>
    </edge>
    <edge id=":edge_2_1-AddedOffRampNode_0" function="internal">
        <lane id=":edge_2_1-AddedOffRampNode_0_0" index="0" speed="36.11" length="3.29" shape="9748.50,242.45 9751.50,239.15"/>
        <lane id=":edge_2_1-AddedOffRampNode_0_1" index="1" disallow="truck automated" speed="36.11" length="3.29" shape="9748.50,242.45 9751.50,242.45"/>
        <lane id=":edge_2_1-AddedOffRampNode_0_2" index="2" disallow="delivery truck automated" speed="36.11" length="3.29" shape="9748.50,245.75 9751.50,245.75"/>
        <lane id=":edge_2_1-AddedOffRampNode_0_3" index="3" speed="36.11" length="3.29" shape="9748.50,249.05 9751.50,249.05"/>
        <lane id=":edge_2_1-AddedOffRampNode_0_4" index="4" speed="36.11" length="3.29" shape="9748.50,252.35 9751.50,252.35"/>
    </edge>
    <edge id=":edge_2_3-AddedOnRampNode_0" function="internal">
        <lane id=":edge_2_3-AddedOnRampNode_0_0" index="0" speed="36.11" length="3.00" shape="10248.50,242.45 10251.50,242.45"/>
        <lane id=":edge_2_3-AddedOnRampNode_0_1" index="1" disallow="truck automated" speed="36.11" length="3.00" shape="10248.50,245.75 10251.50,245.75"/>
        <lane id=":edge_2_3-AddedOnRampNode_0_2" index="2" disallow="delivery truck automated" speed="36.11" length="3.00" shape="10248.50,249.05 10251.50,249.05"/>
        <lane id=":edge_2_3-AddedOnRampNode_0_3" index="3" speed="36.11" length="3.00" shape="10248.50,252.35 10251.50,252.35"/>
    </edge>
    <edge id=":node_0_1_0" function="internal">
        <lane id=":node_0_1_0_0" index="0" speed="36.11" length="0.10" shape="1700.00,242.45 1700.00,242.45"/>
        <lane id=":node_0_1_0_1" index="1" disallow="truck automated" speed="36.11" length="0.10" shape="1700.00,245.75 1700.00,245.75"/>
        <lane id=":node_0_1_0_2" index="2" disallow="delivery truck automated" speed="36.11" length="0.10" shape="1700.00,249.05 1700.00,249.05"/>
        <lane id=":node_0_1_0_3" index="3" speed="36.11" length="0.10" shape="1700.00,252.35 1700.00,252.35"/>
    </edge>
    <edge id=":node_0_2_0" function="internal">
        <lane id=":node_0_2_0_0" index="0" speed="30.55" length="6.46" shape="1893.25,239.15 1895.14,239.06 1896.42,238.77 1897.66,238.28 1899.45,237.59"/>
    </edge>
    <edge id=":node_0_2_1" function="internal">
        <lane id=":node_0_2_1_0" index="0" speed="36.11" length="3.26" shape="1893.25,242.45 1896.51,242.45"/>
        <lane id=":node_0_2_1_1" index="1" disallow="truck automated" speed="36.11" length="3.26" shape="1893.25,245.75 1896.51,245.75"/>
        <lane id=":node_0_2_1_2" index="2" disallow="delivery truck automated" speed="36.11" length="3.26" shape="1893.25,249.05 1896.51,249.05"/>
        <lane id=":node_0_2_1_3" index="3" speed="36.11" length="3.26" shape="1893.25,252.35 1896.51,252.35"/>
    </edge>
    <edge id=":node_0_3_0" function="internal">
        <lane id=":node_0_3_0_0" index="0" speed="30.55" length="6.46" shape="2100.55,237.59 2102.34,238.28 2103.58,238.77 2104.86,239.06 2106.75,239.15"/>
    </edge>
    <edge id=":node_0_3_1" function="internal">
        <lane id=":node_0_3_1_0" index="0" disallow="truck automated" speed="36.11" length="3.26" shape="2103.49,242.45 2106.75,242.45"/>
        <lane id=":node_0_3_1_1" index="1" disallow="delivery truck automated" speed="36.11" length="3.26" shape="2103.49,245.75 2106.75,245.75"/>
        <lane id=":node_0_3_1_2" index="2" speed="36.11" length="3.26" shape="2103.49,249.05 2106.75,249.05"/>
        <lane id=":node_0_3_1_3" index="3" speed="36.11" length="3.26" shape="2103.49,252.35 2106.75,252.35"/>
    </edge>
    <edge id=":node_0_4_0" function="internal">
        <lane id=":node_0_4_0_0" index="0" speed="36.11" length="0.10" shape="2300.00,242.45 2300.00,242.45"/>
        <lane id=":node_0_4_0_1" index="1" disallow="truck automated" speed="36.11" length="0.10" shape="2300.00,245.75 2300.00,245.75"/>
        <lane id=":node_0_4_0_2" index="2" disallow="delivery truck automated" speed="36.11" length="0.10" shape="2300.00,249.05 2300.00,249.05"/>
        <lane id=":node_0_4_0_3" index="3" speed="36.11" length="0.10" shape="2300.00,252.35 2300.00,252.35"/>
    </edge>
    <edge id=":node_0_5_0" function="internal">
        <lane id=":node_0_5_0_0" index="0" speed="36.11" length="0.10" shape="4000.00,242.45 4000.00,242.45"/>
        <lane id=":node_0_5_0_1" index="1" disallow="truck automated" speed="36.11" length="0.10" shape="4000.00,245.75 4000.00,245.75"/>
        <lane id=":node_0_5_0_2" index="2" disallow="delivery truck automated" speed="36.11" length="0.10" shape="4000.00,249.05 4000.00,249.05"/>
        <lane id=":node_0_5_0_3" index="3" speed="36.11" length="0.10" shape="4000.00,252.35 4000.00,252.35"/>
    </edge>
    <edge id=":node_0_6_0" function="internal">
        <lane id=":node_0_6_0_0" index="0" speed="25.00" length="4.62" shape="2001.65,200.20 2001.81,201.40 2002.27,202.39 2003.05,203.16 2004.13,203.70"/>
    </edge>
    <edge id=":node_0_6_1" function="internal">
        <lane id=":node_0_6_1_0" index="0" speed="25.00" length="2.67" shape="2001.65,200.20 2000.83,201.43 2000.00,201.85 1999.77,201.73"/>
    </edge>
    <edge id=":node_0_6_4" function="internal">
        <lane id=":node_0_6_4_0" index="0" speed="25.00" length="2.15" shape="1999.77,201.73 1999.17,201.43 1998.35,200.20"/>
    </edge>
    <edge id=":node_0_6_2" function="internal">
        <lane id=":node_0_6_2_0" index="0" speed="25.00" length="4.62" shape="1995.87,203.70 1996.95,203.16 1997.73,202.39 1998.19,201.40 1998.35,200.20"/>
    </edge>
    <edge id=":node_0_6_3" function="internal">
        <lane id=":node_0_6_3_0" index="0" speed="25.00" length="8.55" shape="1995.87,203.70 1998.25,202.93 2000.00,202.68 2001.75,202.93 2004.13,203.70"/>
    </edge>
    <edge id=":node_0_7_0" function="internal">
        <lane id=":node_0_7_0_0" index="0" speed="25.00" length="0.10" shape="1998.35,4.00 1998.35,4.00"/>
    </edge>
    <edge id=":node_0_7_1" function="internal">
        <lane id=":node_0_7_1_0" index="0" speed="25.00" length="2.41" shape="1998.35,4.00 1999.17,2.76 2000.00,2.35"/>
    </edge>
    <edge id=":node_0_7_4" function="internal">
        <lane id=":node_0_7_4_0" index="0" speed="25.00" length="2.41" shape="2000.00,2.35 2000.83,2.76 2001.65,4.00"/>
    </edge>
    <edge id=":node_0_7_2" function="internal">
        <lane id=":node_0_7_2_0" index="0" speed="25.00" length="0.10" shape="2001.65,4.00 2001.65,4.00"/>
    </edge>
    <edge id=":node_0_7_3" function="internal">
        <lane id=":node_0_7_3_0" index="0" speed="25.00" length="2.41" shape="2001.65,4.00 2000.83,5.24 2000.00,5.65"/>
    </edge>
    <edge id=":node_0_7_5" function="internal">
        <lane id=":node_0_7_5_0" index="0" speed="25.00" length="2.41" shape="2000.00,5.65 1999.17,5.24 1998.35,4.00"/>
    </edge>
    <edge id=":node_0_8_0" function="internal">
        <lane id=":node_0_8_0_0" index="0" speed="25.00" length="4.82" shape="1998.35,0.00 1999.17,-1.24 2000.00,-1.65 2000.83,-1.24 2001.65,0.00"/>
    </edge>
    <edge id=":node_1_1_0" function="internal">
        <lane id=":node_1_1_0_0" index="0" speed="36.11" length="0.10" shape="5700.00,242.45 5700.00,242.45"/>
        <lane id=":node_1_1_0_1" index="1" disallow="truck automated" speed="36.11" length="0.10" shape="5700.00,245.75 5700.00,245.75"/>
        <lane id=":node_1_1_0_2" index="2" disallow="delivery truck automated" speed="36.11" length="0.10" shape="5700.00,249.05 5700.00,249.05"/>
        <lane id=":node_1_1_0_3" index="3" speed="36.11" length="0.10" shape="5700.00,252.35 5700.00,252.35"/>
    </edge>
    <edge id=":node_1_2_0" function="internal">
        <lane id=":node_1_2_0_0" index="0" speed="30.55" length="6.46" shape="5893.25,239.15 5895.14,239.06 5896.42,238.77 5897.66,238.28 5899.45,237.59"/>
    </edge>
    <edge id=":node_1_2_1" function="internal">
        <lane id=":node_1_2_1_0" index="0" speed="36.11" length="3.26" shape="5893.25,242.45 5896.51,242.45"/>
        <lane id=":node_1_2_1_1" index="1" disallow="truck automated" speed="36.11" length="3.26" shape="5893.25,245.75 5896.51,245.75"/>
        <lane id=":node_1_2_1_2" index="2" disallow="delivery truck automated" speed="36.11" length="3.26" shape="5893.25,249.05 5896.51,249.05"/>
        <lane id=":node_1_2_1_3" index="3" speed="36.11" length="3.26" shape="5893.25,252.35 5896.51,252.35"/>
    </edge>
    <edge id=":node_1_3_0" function="internal">
        <lane id=":node_1_3_0_0" index="0" speed="30.55" length="6.46" shape="6100.55,237.59 6102.34,238.28 6103.58,238.77 6104.86,239.06 6106.75,239.15"/>
    </edge>
    <edge id=":node_1_3_1" function="internal">
        <lane id=":node_1_3_1_0" index="0" disallow="truck automated" speed="36.11" length="3.26" shape="6103.49,242.45 6106.75,242.45"/>
        <lane id=":node_1_3_1_1" index="1" disallow="delivery truck automated" speed="36.11" length="3.26" shape="6103.49,245.75 6106.75,245.75"/>
        <lane id=":node_1_3_1_2" index="2" speed="36.11" length="3.26" shape="6103.49,249.05 6106.75,249.05"/>
        <lane id=":node_1_3_1_3" index="3" speed="36.11" length="3.26" shape="6103.49,252.35 6106.75,252.35"/>
    </edge>
    <edge id=":node_1_4_0" function="internal">
        <lane id=":node_1_4_0_0" index="0" speed="36.11" length="0.10" shape="6300.00,242.45 6300.00,242.45"/>
        <lane id=":node_1_4_0_1" index="1" disallow="truck automated" speed="36.11" length="0.10" shape="6300.00,245.75 6300.00,245.75"/>
        <lane id=":node_1_4_0_2" index="2" disallow="delivery truck automated" speed="36.11" length="0.10" shape="6300.00,249.05 6300.00,249.05"/>
        <lane id=":node_1_4_0_3" index="3" speed="36.11" length="0.10" shape="6300.00,252.35 6300.00,252.35"/>
    </edge>
    <edge id=":node_1_5_0" function="internal">
        <lane id=":node_1_5_0_0" index="0" speed="36.11" length="0.10" shape="8000.00,242.45 8000.00,242.45"/>
        <lane id=":node_1_5_0_1" index="1" disallow="truck automated" speed="36.11" length="0.10" shape="8000.00,245.75 8000.00,245.75"/>
        <lane id=":node_1_5_0_2" index="2" disallow="delivery truck automated" speed="36.11" length="0.10" shape="8000.00,249.05 8000.00,249.05"/>
        <lane id=":node_1_5_0_3" index="3" speed="36.11" length="0.10" shape="8000.00,252.35 8000.00,252.35"/>
    </edge>
    <edge id=":node_1_6_0" function="internal">
        <lane id=":node_1_6_0_0" index="0" speed="25.00" length="4.62" shape="6001.65,200.20 6001.81,201.40 6002.27,202.39 6003.05,203.16 6004.13,203.70"/>
    </edge>
    <edge id=":node_1_6_1" function="internal">
        <lane id=":node_1_6_1_0" index="0" speed="25.00" length="2.67" shape="6001.65,200.20 6000.83,201.43 6000.00,201.85 5999.77,201.73"/>
    </edge>
    <edge id=":node_1_6_4" function="internal">
        <lane id=":node_1_6_4_0" index="0" speed="25.00" length="2.15" shape="5999.77,201.73 5999.18,201.43 5998.35,200.20"/>
    </edge>
    <edge id=":node_1_6_2" function="internal">
        <lane id=":node_1_6_2_0" index="0" speed="25.00" length="4.62" shape="5995.87,203.70 5996.95,203.16 5997.73,202.39 5998.19,201.40 5998.35,200.20"/>
    </edge>
    <edge id=":node_1_6_3" function="internal">
        <lane id=":node_1_6_3_0" index="0" speed="25.00" length="8.55" shape="5995.87,203.70 5998.25,202.93 6000.00,202.68 6001.75,202.93 6004.13,203.70"/>
    </edge>
    <edge id=":node_1_7_0" function="internal">
        <lane id=":node_1_7_0_0" index="0" speed="25.00" length="0.10" shape="5998.35,4.00 5998.35,4.00"/>
    </edge>
    <edge id=":node_1_7_1" function="internal">
        <lane id=":node_1_7_1_0" index="0" speed="25.00" length="2.41" shape="5998.35,4.00 5999.17,2.76 6000.00,2.35"/>
    </edge>
    <edge id=":node_1_7_4" function="internal">
        <lane id=":node_1_7_4_0" index="0" speed="25.00" length="2.41" shape="6000.00,2.35 6000.82,2.76 6001.65,4.00"/>
    </edge>
    <edge id=":node_1_7_2" function="internal">
        <lane id=":node_1_7_2_0" index="0" speed="25.00" length="0.10" shape="6001.65,4.00 6001.65,4.00"/>
    </edge>
    <edge id=":node_1_7_3" function="internal">
        <lane id=":node_1_7_3_0" index="0" speed="25.00" length="2.41" shape="6001.65,4.00 6000.83,5.24 6000.00,5.65"/>
    </edge>
    <edge id=":node_1_7_5" function="internal">
        <lane id=":node_1_7_5_0" index="0" speed="25.00" length="2.41" shape="6000.00,5.65 5999.18,5.24 5998.35,4.00"/>
    </edge>
    <edge id=":node_1_8_0" function="internal">
        <lane id=":node_1_8_0_0" index="0" speed="25.00" length="4.82" shape="5998.35,0.00 5999.17,-1.24 6000.00,-1.65 6000.82,-1.24 6001.65,0.00"/>
    </edge>
    <edge id=":node_2_1_0" function="internal">
        <lane id=":node_2_1_0_0" index="0" speed="36.11" length="0.10" shape="9700.00,242.45 9700.00,242.45"/>
        <lane id=":node_2_1_0_1" index="1" disallow="truck automated" speed="36.11" length="0.10" shape="9700.00,245.75 9700.00,245.75"/>
        <lane id=":node_2_1_0_2" index="2" disallow="delivery truck automated" speed="36.11" length="0.10" shape="9700.00,249.05 9700.00,249.05"/>
        <lane id=":node_2_1_0_3" index="3" speed="36.11" length="0.10" shape="9700.00,252.35 9700.00,252.35"/>
    </edge>
    <edge id=":node_2_2_0" function="internal">
        <lane id=":node_2_2_0_0" index="0" speed="30.55" length="6.46" shape="9893.25,239.15 9895.14,239.06 9896.42,238.77 9897.66,238.28 9899.45,237.59"/>
    </edge>
    <edge id=":node_2_2_1" function="internal">
        <lane id=":node_2_2_1_0" index="0" speed="36.11" length="3.26" shape="9893.25,242.45 9896.51,242.45"/>
        <lane id=":node_2_2_1_1" index="1" disallow="truck automated" speed="36.11" length="3.26" shape="9893.25,245.75 9896.51,245.75"/>
        <lane id=":node_2_2_1_2" index="2" disallow="delivery truck automated" speed="36.11" length="3.26" shape="9893.25,249.05 9896.51,249.05"/>
        <lane id=":node_2_2_1_3" index="3" speed="36.11" length="3.26" shape="9893.25,252.35 9896.51,252.35"/>
    </edge>
    <edge id=":node_2_3_0" function="internal">
        <lane id=":node_2_3_0_0" index="0" speed="30.55" length="6.46" shape="10100.55,237.59 10102.34,238.28 10103.58,238.77 10104.86,239.06 10106.75,239.15"/>
    </edge>
    <edge id=":node_2_3_1" function="internal">
        <lane id=":node_2_3_1_0" index="0" disallow="truck automated" speed="36.11" length="3.26" shape="10103.49,242.45 10106.75,242.45"/>
        <lane id=":node_2_3_1_1" index="1" disallow="delivery truck automated" speed="36.11" length="3.26" shape="10103.49,245.75 10106.75,245.75"/>
        <lane id=":node_2_3_1_2" index="2" speed="36.11" length="3.26" shape="10103.49,249.05 10106.75,249.05"/>
        <lane id=":node_2_3_1_3" index="3" speed="36.11" length="3.26" shape="10103.49,252.35 10106.75,252.35"/>
    </edge>
    <edge id=":node_2_4_0" function="internal">
        <lane id=":node_2_4_0_0" index="0" speed="36.11" length="0.10" shape="10300.00,242.45 10300.00,242.45"/>
        <lane id=":node_2_4_0_1" index="1" disallow="truck automated" speed="36.11" length="0.10" shape="10300.00,245.75 10300.00,245.75"/>
        <lane id=":node_2_4_0_2" index="2" disallow="delivery truck automated" speed="36.11" length="0.10" shape="10300.00,249.05 10300.00,249.05"/>
        <lane id=":node_2_4_0_3" index="3" speed="36.11" length="0.10" shape="10300.00,252.35 10300.00,252.35"/>
    </edge>
    <edge id=":node_2_5_0" function="internal">
        <lane id=":node_2_5_0_0" index="0" speed="36.11" length="0.10" shape="12000.00,242.45 12000.00,242.45"/>
        <lane id=":node_2_5_0_1" index="1" disallow="truck automated" speed="36.11" length="0.10" shape="12000.00,245.75 12000.00,245.75"/>
        <lane id=":node_2_5_0_2" index="2" disallow="delivery truck automated" speed="36.11" length="0.10" shape="12000.00,249.05 12000.00,249.05"/>
        <lane id=":node_2_5_0_3" index="3" speed="36.11" length="0.10" shape="12000.00,252.35 12000.00,252.35"/>
    </edge>
    <edge id=":node_2_6_0" function="internal">
        <lane id=":node_2_6_0_0" index="0" speed="25.00" length="4.62" shape="10001.65,200.20 10001.81,201.40 10002.27,202.39 10003.05,203.16 10004.13,203.70"/>
    </edge>
    <edge id=":node_2_6_1" function="internal">
        <lane id=":node_2_6_1_0" index="0" speed="25.00" length="2.67" shape="10001.65,200.20 10000.82,201.43 10000.00,201.85 9999.77,201.73"/>
    </edge>
    <edge id=":node_2_6_4" function="internal">
        <lane id=":node_2_6_4_0" index="0" speed="25.00" length="2.15" shape="9999.77,201.73 9999.17,201.43 9998.35,200.20"/>
    </edge>
    <edge id=":node_2_6_2" function="internal">
        <lane id=":node_2_6_2_0" index="0" speed="25.00" length="4.62" shape="9995.87,203.70 9996.95,203.16 9997.73,202.39 9998.19,201.40 9998.35,200.20"/>
    </edge>
    <edge id=":node_2_6_3" function="internal">
        <lane id=":node_2_6_3_0" index="0" speed="25.00" length="8.55" shape="9995.87,203.70 9998.25,202.93 10000.00,202.68 10001.75,202.93 10004.13,203.70"/>
    </edge>
    <edge id=":node_2_7_0" function="internal">
        <lane id=":node_2_7_0_0" index="0" speed="25.00" length="0.10" shape="9998.35,4.00 9998.35,4.00"/>
    </edge>
    <edge id=":node_2_7_1" function="internal">
        <lane id=":node_2_7_1_0" index="0" speed="25.00" length="2.41" shape="9998.35,4.00 9999.18,2.76 10000.00,2.35"/>
    </edge>
    <edge id=":node_2_7_4" function="internal">
        <lane id=":node_2_7_4_0" index="0" speed="25.00" length="2.41" shape="10000.00,2.35 10000.83,2.76 10001.65,4.00"/>
    </edge>
    <edge id=":node_2_7_2" function="internal">
        <lane id=":node_2_7_2_0" index="0" speed="25.00" length="0.10" shape="10001.65,4.00 10001.65,4.00"/>
    </edge>
    <edge id=":node_2_7_3" function="internal">
        <lane id=":node_2_7_3_0" index="0" speed="25.00" length="2.41" shape="10001.65,4.00 10000.82,5.24 10000.00,5.65"/>
    </edge>
    <edge id=":node_2_7_5" function="internal">
        <lane id=":node_2_7_5_0" index="0" speed="25.00" length="2.41" shape="10000.00,5.65 9999.17,5.24 9998.35,4.00"/>
    </edge>
    <edge id=":node_2_8_0" function="internal">
        <lane id=":node_2_8_0_0" index="0" speed="25.00" length="4.82" shape="9998.35,0.00 9999.18,-1.24 10000.00,-1.65 10000.83,-1.24 10001.65,0.00"/>
    </edge>

    <edge id="begin" from="node_0_0" to="node_0_1" priority="7">
        <lane id="begin_0" index="0" speed="36.11" length="1700.00" shape="0.00,242.45 1700.00,242.45"/>
        <lane id="begin_1" index="1" disallow="truck automated" speed="36.11" length="1700.00" shape="0.00,245.75 1700.00,245.75"/>
        <lane id="begin_2" index="2" disallow="delivery truck automated" speed="36.11" length="1700.00" shape="0.00,249.05 1700.00,249.05"/>
        <lane id="begin_3" index="3" speed="36.11" length="1700.00" shape="0.00,252.35 1700.00,252.35"/>
    </edge>
    <edge id="edge_0_1" from="node_0_1" to="edge_0_1-AddedOffRampNode" priority="7">
        <lane id="edge_0_1_0" index="0" speed="36.11" length="48.50" shape="1700.00,242.45 1748.50,242.45"/>
        <lane id="edge_0_1_1" index="1" disallow="truck automated" speed="36.11" length="48.50" shape="1700.00,245.75 1748.50,245.75"/>
        <lane id="edge_0_1_2" index="2" disallow="delivery truck automated" speed="36.11" length="48.50" shape="1700.00,249.05 1748.50,249.05"/>
        <lane id="edge_0_1_3" index="3" speed="36.11" length="48.50" shape="1700.00,252.35 1748.50,252.35"/>
    </edge>
    <edge id="edge_0_1-AddedOffRampEdge" from="edge_0_1-AddedOffRampNode" to="node_0_2" priority="7">
        <lane id="edge_0_1-AddedOffRampEdge_0" index="0" speed="36.11" length="141.75" shape="1751.50,239.15 1893.25,239.15"/>
        <lane id="edge_0_1-AddedOffRampEdge_1" index="1" disallow="truck automated" speed="36.11" length="141.75" shape="1751.50,242.45 1893.25,242.45"/>
        <lane id="edge_0_1-AddedOffRampEdge_2" index="2" disallow="delivery truck automated" speed="36.11" length="141.75" shape="1751.50,245.75 1893.25,245.75"/>
        <lane id="edge_0_1-AddedOffRampEdge_3" index="3" speed="36.11" length="141.75" shape="1751.50,249.05 1893.25,249.05"/>
        <lane id="edge_0_1-AddedOffRampEdge_4" index="4" speed="36.11" length="141.75" shape="1751.50,252.35 1893.25,252.35"/>
    </edge>
    <edge id="edge_0_2" from="node_0_2" to="node_0_3" priority="7">
        <lane id="edge_0_2_0" index="0" speed="36.11" length="206.97" shape="1896.51,242.45 2103.49,242.45"/>
        <lane id="edge_0_2_1" index="1" disallow="truck automated" speed="36.11" length="206.97" shape="1896.51,245.75 2103.49,245.75"/>
        <lane id="edge_0_2_2" index="2" disallow="delivery truck automated" speed="36.11" length="206.97" shape="1896.51,249.05 2103.49,249.05"/>
        <lane id="edge_0_2_3" index="3" speed="36.11" length="206.97" shape="1896.51,252.35 2103.49,252.35"/>
    </edge>
    <edge id="edge_0_3" from="edge_0_3-AddedOnRampNode" to="node_0_4" priority="7">
        <lane id="edge_0_3_0" index="0" speed="36.11" length="48.50" shape="2251.50,242.45 2300.00,242.45"/>
        <lane id="edge_0_3_1" index="1" disallow="truck automated" speed="36.11" length="48.50" shape="2251.50,245.75 2300.00,245.75"/>
        <lane id="edge_0_3_2" index="2" disallow="delivery truck automated" speed="36.11" length="48.50" shape="2251.50,249.05 2300.00,249.05"/>
        <lane id="edge_0_3_3" index="3" speed="36.11" length="48.50" shape="2251.50,252.35 2300.00,252.35"/>
    </edge>
    <edge id="edge_0_3-AddedOnRampEdge" from="node_0_3" to="edge_0_3-AddedOnRampNode" priority="7">
        <lane id="edge_0_3-AddedOnRampEdge_0" index="0" speed="36.11" length="141.75" acceleration="1" shape="2106.75,239.15 2248.50,239.15"/>
        <lane id="edge_0_3-AddedOnRampEdge_1" index="1" disallow="truck automated" speed="36.11" length="141.75" shape="2106.75,242.45 2248.50,242.45"/>
        <lane id="edge_0_3-AddedOnRampEdge_2" index="2" disallow="delivery truck automated" speed="36.11" length="141.75" shape="2106.75,245.75 2248.50,245.75"/>
        <lane id="edge_0_3-AddedOnRampEdge_3" index="3" speed="36.11" length="141.75" shape="2106.75,249.05 2248.50,249.05"/>
        <lane id="edge_0_3-AddedOnRampEdge_4" index="4" speed="36.11" length="141.75" shape="2106.75,252.35 2248.50,252.35"/>
    </edge>
    <edge id="edge_0_4" from="node_0_4" to="node_0_5" priority="7">
        <lane id="edge_0_4_0" index="0" speed="36.11" length="1700.00" shape="2300.00,242.45 4000.00,242.45"/>
        <lane id="edge_0_4_1" index="1" disallow="truck automated" speed="36.11" length="1700.00" shape="2300.00,245.75 4000.00,245.75"/>
        <lane id="edge_0_4_2" index="2" disallow="delivery truck automated" speed="36.11" length="1700.00" shape="2300.00,249.05 4000.00,249.05"/>
        <lane id="edge_0_4_3" index="3" speed="36.11" length="1700.00" shape="2300.00,252.35 4000.00,252.35"/>
    </edge>
    <edge id="edge_0_5" from="node_0_2" to="node_0_6" priority="7" shape="1900.00,239.15 2000.00,204.00">
        <lane id="edge_0_5_0" index="0" speed="25.00" length="102.20" shape="1899.45,237.59 1995.87,203.70"/>
    </edge>
    <edge id="edge_0_6" from="node_0_6" to="node_0_3" priority="7" shape="2000.00,204.00 2100.00,239.15">
        <lane id="edge_0_6_0" index="0" speed="25.00" length="102.20" shape="2004.13,203.70 2100.55,237.59"/>
    </edge>
    <edge id="edge_0_7" from="node_0_6" to="node_0_7" priority="7">
        <lane id="edge_0_7_0" index="0" speed="25.00" length="196.20" shape="1998.35,200.20 1998.35,4.00"/>
    </edge>
    <edge id="edge_0_8" from="node_0_7" to="node_0_6" priority="7">
        <lane id="edge_0_8_0" index="0" speed="25.00" length="196.20" shape="2001.65,4.00 2001.65,200.20"/>
    </edge>
    <edge id="edge_1_0" from="node_0_5" to="node_1_1" priority="7">
        <lane id="edge_1_0_0" index="0" speed="36.11" length="1700.00" shape="4000.00,242.45 5700.00,242.45"/>
        <lane id="edge_1_0_1" index="1" disallow="truck automated" speed="36.11" length="1700.00" shape="4000.00,245.75 5700.00,245.75"/>
        <lane id="edge_1_0_2" index="2" disallow="delivery truck automated" speed="36.11" length="1700.00" shape="4000.00,249.05 5700.00,249.05"/>
        <lane id="edge_1_0_3" index="3" speed="36.11" length="1700.00" shape="4000.00,252.35 5700.00,252.35"/>
    </edge>
    <edge id="edge_1_1" from="node_1_1" to="edge_1_1-AddedOffRampNode" priority="7">
        <lane id="edge_1_1_0" index="0" speed="36.11" length="48.50" shape="5700.00,242.45 5748.50,242.45"/>
        <lane id="edge_1_1_1" index="1" disallow="truck automated" speed="36.11" length="48.50" shape="5700.00,245.75 5748.50,245.75"/>
        <lane id="edge_1_1_2" index="2" disallow="delivery truck automated" speed="36.11" length="48.50" shape="5700.00,249.05 5748.50,249.05"/>
        <lane id="edge_1_1_3" index="3" speed="36.11" length="48.50" shape="5700.00,252.35 5748.50,252.35"/>
    </edge>
    <edge id="edge_1_1-AddedOffRampEdge" from="edge_1_1-AddedOffRampNode" to="node_1_2" priority="7">
        <lane id="edge_1_1-AddedOffRampEdge_0" index="0" speed="36.11" length="141.75" shape="5751.50,239.15 5893.25,239.15"/>
        <lane id="edge_1_1-AddedOffRampEdge_1" index="1" disallow="truck automated" speed="36.11" length="141.75" shape="5751.50,242.45 5893.25,242.45"/>
        <lane id="edge_1_1-AddedOffRampEdge_2" index="2" disallow="delivery truck automated" speed="36.11" length="141.75" shape="5751.50,245.75 5893.25,245.75"/>
        <lane id="edge_1_1-AddedOffRampEdge_3" index="3" speed="36.11" length="141.75" shape="5751.50,249.05 5893.25,249.05"/>
        <lane id="edge_1_1-AddedOffRampEdge_4" index="4" speed="36.11" length="141.75" shape="5751.50,252.35 5893.25,252.35"/>
    </edge>
    <edge id="edge_1_2" from="node_1_2" to="node_1_3" priority="7">
        <lane id="edge_1_2_0" index="0" speed="36.11" length="206.97" shape="5896.51,242.45 6103.49,242.45"/>
        <lane id="edge_1_2_1" index="1" disallow="truck automated" speed="36.11" length="206.97" shape="5896.51,245.75 6103.49,245.75"/>
        <lane id="edge_1_2_2" index="2" disallow="delivery truck automated" speed="36.11" length="206.97" shape="5896.51,249.05 6103.49,249.05"/>