<?xml version="1.0" encoding="UTF-8"?>

<!-- generated on Fri Sep 22 11:39:50 2017 by SUMO netconvert Version 0.29.0
<?xml version="1.0" encoding="UTF-8"?>

<configuration xmlns:xsi="http://www.w3.org/2001/XMLSchema-instance" xsi:noNamespaceSchemaLocation="http://sumo.dlr.de/xsd/netconvertConfiguration.xsd">

    <input>
        <node-files value="shortDistanceBetweenRampsHighway.nod.xml"/>
        <edge-files value="shortDistanceBetweenRampsHighway.edg.xml"/>
    </input>

    <output>
        <output-file value="shortDistanceBetweenRampsHighway.net.xml"/>
    </output>

    <ramp_guessing>
        <ramps.ramp-length value="150"/>
        <ramps.set value="edge_0_1,edge_0_3,edge_1_1,edge_1_3,edge_2_1,edge_2_3"/>
    </ramp_guessing>

</configuration>
-->

<net version="0.27" xmlns:xsi="http://www.w3.org/2001/XMLSchema-instance" xsi:noNamespaceSchemaLocation="http://sumo.dlr.de/xsd/net_file.xsd">

    <location netOffset="0.00,254.00" convBoundary="0.00,0.00,6004.00,254.00" origBoundary="0.00,-254.00,6004.00,0.00" projParameter="!"/>

    <edge id=":edge_0_1-AddedOffRampNode_0" function="internal">
        <lane id=":edge_0_1-AddedOffRampNode_0_0" index="0" speed="36.11" length="3.29" shape="748.50,242.45 751.50,239.15"/>
        <lane id=":edge_0_1-AddedOffRampNode_0_1" index="1" disallow="truck automated" speed="36.11" length="3.29" shape="748.50,242.45 751.50,242.45"/>
        <lane id=":edge_0_1-AddedOffRampNode_0_2" index="2" disallow="delivery truck automated" speed="36.11" length="3.29" shape="748.50,245.75 751.50,245.75"/>
        <lane id=":edge_0_1-AddedOffRampNode_0_3" index="3" speed="36.11" length="3.29" shape="748.50,249.05 751.50,249.05"/>
        <lane id=":edge_0_1-AddedOffRampNode_0_4" index="4" speed="36.11" length="3.29" shape="748.50,252.35 751.50,252.35"/>
    </edge>
    <edge id=":edge_0_3-AddedOnRampNode_0" function="internal">
        <lane id=":edge_0_3-AddedOnRampNode_0_0" index="0" speed="36.11" length="3.00" shape="1248.50,242.45 1251.50,242.45"/>
        <lane id=":edge_0_3-AddedOnRampNode_0_1" index="1" disallow="truck automated" speed="36.11" length="3.00" shape="1248.50,245.75 1251.50,245.75"/>
        <lane id=":edge_0_3-AddedOnRampNode_0_2" index="2" disallow="delivery truck automated" speed="36.11" length="3.00" shape="1248.50,249.05 1251.50,249.05"/>
        <lane id=":edge_0_3-AddedOnRampNode_0_3" index="3" speed="36.11" length="3.00" shape="1248.50,252.35 1251.50,252.35"/>
    </edge>
    <edge id=":edge_1_1-AddedOffRampNode_0" function="internal">
        <lane id=":edge_1_1-AddedOffRampNode_0_0" index="0" speed="36.11" length="3.29" shape="2748.50,242.45 2751.50,239.15"/>
        <lane id=":edge_1_1-AddedOffRampNode_0_1" index="1" disallow="truck automated" speed="36.11" length="3.29" shape="2748.50,242.45 2751.50,242.45"/>
        <lane id=":edge_1_1-AddedOffRampNode_0_2" index="2" disallow="delivery truck automated" speed="36.11" length="3.29" shape="2748.50,245.75 2751.50,245.75"/>
        <lane id=":edge_1_1-AddedOffRampNode_0_3" index="3" speed="36.11" length="3.29" shape="2748.50,249.05 2751.50,249.05"/>
        <lane id=":edge_1_1-AddedOffRampNode_0_4" index="4" speed="36.11" length="3.29" shape="2748.50,252.35 2751.50,252.35"/>
    </edge>
    <edge id=":edge_1_3-AddedOnRampNode_0" function="internal">
        <lane id=":edge_1_3-AddedOnRampNode_0_0" index="0" speed="36.11" length="3.00" shape="3248.50,242.45 3251.50,242.45"/>
        <lane id=":edge_1_3-AddedOnRampNode_0_1" index="1" disallow="truck automated" speed="36.11" length="3.00" shape="3248.50,245.75 3251.50,245.75"/>
        <lane id=":edge_1_3-AddedOnRampNode_0_2" index="2" disallow="delivery truck automated" speed="36.11" length="3.00" shape="3248.50,249.05 3251.50,249.05"/>
        <lane id=":edge_1_3-AddedOnRampNode_0_3" index="3" speed="36.11" length="3.00" shape="3248.50,252.35 3251.50,252.35"/>
    </edge>
    <edge id=":edge_2_1-AddedOffRampNode_0" function="internal">
        <lane id=":edge_2_1-AddedOffRampNode_0_0" index="0" speed="36.11" length="3.29" shape="4748.50,242.45 4751.50,239.15"/>
        <lane id=":edge_2_1-AddedOffRampNode_0_1" index="1" disallow="truck automated" speed="36.11" length="3.29" shape="4748.50,242.45 4751.50,242.45"/>
        <lane id=":edge_2_1-AddedOffRampNode_0_2" index="2" disallow="delivery truck automated" speed="36.11" length="3.29" shape="4748.50,245.75 4751.50,245.75"/>
        <lane id=":edge_2_1-AddedOffRampNode_0_3" index="3" speed="36.11" length="3.29" shape="4748.50,249.05 4751.50,249.05"/>
        <lane id=":edge_2_1-AddedOffRampNode_0_4" index="4" speed="36.11" length="3.29" shape="4748.50,252.35 4751.50,252.35"/>
    </edge>
    <edge id=":edge_2_3-AddedOnRampNode_0" function="internal">
        <lane id=":edge_2_3-AddedOnRampNode_0_0" index="0" speed="36.11" length="3.00" shape="5248.50,242.45 5251.50,242.45"/>
        <lane id=":edge_2_3-AddedOnRampNode_0_1" index="1" disallow="truck automated" speed="36.11" length="3.00" shape="5248.50,245.75 5251.50,245.75"/>
        <lane id=":edge_2_3-AddedOnRampNode_0_2" index="2" disallow="delivery truck automated" speed="36.11" length="3.00" shape="5248.50,249.05 5251.50,249.05"/>
        <lane id=":edge_2_3-AddedOnRampNode_0_3" index="3" speed="36.11" length="3.00" shape="5248.50,252.35 5251.50,252.35"/>
    </edge>
    <edge id=":node_0_1_0" function="internal">
        <lane id=":node_0_1_0_0" index="0" speed="36.11" length="0.10" shape="700.00,242.45 700.00,242.45"/>
        <lane id=":node_0_1_0_1" index="1" disallow="truck automated" speed="36.11" length="0.10" shape="700.00,245.75 700.00,245.75"/>
        <lane id=":node_0_1_0_2" index="2" disallow="delivery truck automated" speed="36.11" length="0.10" shape="700.00,249.05 700.00,249.05"/>
        <lane id=":node_0_1_0_3" index="3" speed="36.11" length="0.10" shape="700.00,252.35 700.00,252.35"/>
    </edge>
    <edge id=":node_0_2_0" function="internal">
        <lane id=":node_0_2_0_0" index="0" speed="30.55" length="3.53" shape="893.25,239.15 894.30,239.14 895.01,239.07 895.71,238.90 896.70,238.56"/>
    </edge>
    <edge id=":node_0_2_1" function="internal">
        <lane id=":node_0_2_1_0" index="0" speed="36.11" length="8.25" shape="893.25,242.45 901.50,242.45"/>
        <lane id=":node_0_2_1_1" index="1" disallow="truck automated" speed="36.11" length="8.25" shape="893.25,245.75 901.50,245.75"/>
        <lane id=":node_0_2_1_2" index="2" disallow="delivery truck automated" speed="36.11" length="8.25" shape="893.25,249.05 901.50,249.05"/>
        <lane id=":node_0_2_1_3" index="3" speed="36.11" length="8.25" shape="893.25,252.35 901.50,252.35"/>
    </edge>
    <edge id=":node_0_3_0" function="internal">
        <lane id=":node_0_3_0_0" index="0" speed="30.55" length="3.53" shape="1103.30,238.56 1104.29,238.90 1104.99,239.07 1105.70,239.14 1106.75,239.15"/>
    </edge>
    <edge id=":node_0_3_1" function="internal">
        <lane id=":node_0_3_1_0" index="0" disallow="truck automated" speed="36.11" length="8.25" shape="1098.50,242.45 1106.75,242.45"/>
        <lane id=":node_0_3_1_1" index="1" disallow="delivery truck automated" speed="36.11" length="8.25" shape="1098.50,245.75 1106.75,245.75"/>
        <lane id=":node_0_3_1_2" index="2" speed="36.11" length="8.25" shape="1098.50,249.05 1106.75,249.05"/>
        <lane id=":node_0_3_1_3" index="3" speed="36.11" length="8.25" shape="1098.50,252.35 1106.75,252.35"/>
    </edge>
    <edge id=":node_0_4_0" function="internal">
        <lane id=":node_0_4_0_0" index="0" speed="36.11" length="0.10" shape="1300.00,242.45 1300.00,242.45"/>
        <lane id=":node_0_4_0_1" index="1" disallow="truck automated" speed="36.11" length="0.10" shape="1300.00,245.75 1300.00,245.75"/>
        <lane id=":node_0_4_0_2" index="2" disallow="delivery truck automated" speed="36.11" length="0.10" shape="1300.00,249.05 1300.00,249.05"/>
        <lane id=":node_0_4_0_3" index="3" speed="36.11" length="0.10" shape="1300.00,252.35 1300.00,252.35"/>
    </edge>
    <edge id=":node_0_5_0" function="internal">
        <lane id=":node_0_5_0_0" index="0" speed="36.11" length="0.10" shape="2000.00,242.45 2000.00,242.45"/>
        <lane id=":node_0_5_0_1" index="1" disallow="truck automated" speed="36.11" length="0.10" shape="2000.00,245.75 2000.00,245.75"/>
        <lane id=":node_0_5_0_2" index="2" disallow="delivery truck automated" speed="36.11" length="0.10" shape="2000.00,249.05 2000.00,249.05"/>
        <lane id=":node_0_5_0_3" index="3" speed="36.11" length="0.10" shape="2000.00,252.35 2000.00,252.35"/>
    </edge>
    <edge id=":node_0_6_0" function="internal">
        <lane id=":node_0_6_0_0" index="0" speed="25.00" length="4.62" shape="1001.65,200.20 1001.81,201.40 1002.27,202.39 1003.05,203.16 1004.13,203.70"/>
    </edge>
    <edge id=":node_0_6_1" function="internal">
        <lane id=":node_0_6_1_0" index="0" speed="25.00" length="2.67" shape="1001.65,200.20 1000.83,201.43 1000.00,201.85 999.77,201.73"/>
    </edge>
    <edge id=":node_0_6_4" function="internal">
        <lane id=":node_0_6_4_0" index="0" speed="25.00" length="2.15" shape="999.77,201.73 999.17,201.43 998.35,200.20"/>
    </edge>
    <edge id=":node_0_6_2" function="internal">
        <lane id=":node_0_6_2_0" index="0" speed="25.00" length="4.62" shape="995.87,203.70 996.95,203.16 997.73,202.39 998.19,201.40 998.35,200.20"/>
    </edge>
    <edge id=":node_0_6_3" function="internal">
        <lane id=":node_0_6_3_0" index="0" speed="25.00" length="8.55" shape="995.87,203.70 998.25,202.93 1000.00,202.68 1001.75,202.93 1004.13,203.70"/>
    </edge>
    <edge id=":node_0_7_0" function="internal">
        <lane id=":node_0_7_0_0" index="0" speed="25.00" length="0.10" shape="998.35,4.00 998.35,4.00"/>
    </edge>
    <edge id=":node_0_7_1" function="internal">
        <lane id=":node_0_7_1_0" index="0" speed="25.00" length="2.41" shape="998.35,4.00 999.17,2.76 1000.00,2.35"/>
    </edge>
    <edge id=":node_0_7_4" function="internal">
        <lane id=":node_0_7_4_0" index="0" speed="25.00" length="2.41" shape="1000.00,2.35 1000.83,2.76 1001.65,4.00"/>
    </edge>
    <edge id=":node_0_7_2" function="internal">
        <lane id=":node_0_7_2_0" index="0" speed="25.00" length="0.10" shape="1001.65,4.00 1001.65,4.00"/>
    </edge>
    <edge id=":node_0_7_3" function="internal">
        <lane id=":node_0_7_3_0" index="0" speed="25.00" length="2.41" shape="1001.65,4.00 1000.83,5.24 1000.00,5.65"/>
    </edge>
    <edge id=":node_0_7_5" function="internal">
        <lane id=":node_0_7_5_0" index="0" speed="25.00" length="2.41" shape="1000.00,5.65 999.17,5.24 998.35,4.00"/>
    </edge>
    <edge id=":node_0_8_0" function="internal">
        <lane id=":node_0_8_0_0" index="0" speed="25.00" length="4.82" shape="998.35,0.00 999.17,-1.24 1000.00,-1.65 1000.83,-1.24 1001.65,0.00"/>
    </edge>
    <edge id=":node_1_1_0" function="internal">
        <lane id=":node_1_1_0_0" index="0" speed="36.11" length="0.10" shape="2700.00,242.45 2700.00,242.45"/>
        <lane id=":node_1_1_0_1" index="1" disallow="truck automated" speed="36.11" length="0.10" shape="2700.00,245.75 2700.00,245.75"/>
        <lane id=":node_1_1_0_2" index="2" disallow="delivery truck automated" speed="36.11" length="0.10" shape="2700.00,249.05 2700.00,249.05"/>
        <lane id=":node_1_1_0_3" index="3" speed="36.11" length="0.10" shape="2700.00,252.35 2700.00,252.35"/>
    </edge>
    <edge id=":node_1_2_0" function="internal">
        <lane id=":node_1_2_0_0" index="0" speed="30.55" length="3.53" shape="2893.25,239.15 2894.30,239.14 2895.01,239.07 2895.71,238.90 2896.70,238.56"/>
    </edge>
    <edge id=":node_1_2_1" function="internal">
        <lane id=":node_1_2_1_0" index="0" speed="36.11" length="8.25" shape="2893.25,242.45 2901.50,242.45"/>
        <lane id=":node_1_2_1_1" index="1" disallow="truck automated" speed="36.11" length="8.25" shape="2893.25,245.75 2901.50,245.75"/>
        <lane id=":node_1_2_1_2" index="2" disallow="delivery truck automated" speed="36.11" length="8.25" shape="2893.25,249.05 2901.50,249.05"/>
        <lane id=":node_1_2_1_3" index="3" speed="36.11" length="8.25" shape="2893.25,252.35 2901.50,252.35"/>
    </edge>
    <edge id=":node_1_3_0" function="internal">
        <lane id=":node_1_3_0_0" index="0" speed="30.55" length="3.53" shape="3103.30,238.56 3104.29,238.90 3104.99,239.07 3105.70,239.14 3106.75,239.15"/>
    </edge>
    <edge id=":node_1_3_1" function="internal">
        <lane id=":node_1_3_1_0" index="0" disallow="truck automated" speed="36.11" length="8.25" shape="3098.50,242.45 3106.75,242.45"/>
        <lane id=":node_1_3_1_1" index="1" disallow="delivery truck automated" speed="36.11" length="8.25" shape="3098.50,245.75 3106.75,245.75"/>
        <lane id=":node_1_3_1_2" index="2" speed="36.11" length="8.25" shape="3098.50,249.05 3106.75,249.05"/>
        <lane id=":node_1_3_1_3" index="3" speed="36.11" length="8.25" shape="3098.50,252.35 3106.75,252.35"/>
    </edge>
    <edge id=":node_1_4_0" function="internal">
        <lane id=":node_1_4_0_0" index="0" speed="36.11" length="0.10" shape="3300.00,242.45 3300.00,242.45"/>
        <lane id=":node_1_4_0_1" index="1" disallow="truck automated" speed="36.11" length="0.10" shape="3300.00,245.75 3300.00,245.75"/>
        <lane id=":node_1_4_0_2" index="2" disallow="delivery truck automated" speed="36.11" length="0.10" shape="3300.00,249.05 3300.00,249.05"/>
        <lane id=":node_1_4_0_3" index="3" speed="36.11" length="0.10" shape="3300.00,252.35 3300.00,252.35"/>
    </edge>
    <edge id=":node_1_5_0" function="internal">
        <lane id=":node_1_5_0_0" index="0" speed="36.11" length="0.10" shape="4000.00,242.45 4000.00,242.45"/>
        <lane id=":node_1_5_0_1" index="1" disallow="truck automated" speed="36.11" length="0.10" shape="4000.00,245.75 4000.00,245.75"/>
        <lane id=":node_1_5_0_2" index="2" disallow="delivery truck automated" speed="36.11" length="0.10" shape="4000.00,249.05 4000.00,249.05"/>
        <lane id=":node_1_5_0_3" index="3" speed="36.11" length="0.10" shape="4000.00,252.35 4000.00,252.35"/>
    </edge>
    <edge id=":node_1_6_0" function="internal">
        <lane id=":node_1_6_0_0" index="0" speed="25.00" length="4.62" shape="3001.65,200.20 3001.81,201.40 3002.27,202.39 3003.05,203.16 3004.13,203.70"/>
    </edge>
    <edge id=":node_1_6_1" function="internal">
        <lane id=":node_1_6_1_0" index="0" speed="25.00" length="2.67" shape="3001.65,200.20 3000.83,201.43 3000.00,201.85 2999.77,201.73"/>
    </edge>
    <edge id=":node_1_6_4" function="internal">
        <lane id=":node_1_6_4_0" index="0" speed="25.00" length="2.15" shape="2999.77,201.73 2999.18,201.43 2998.35,200.20"/>
    </edge>
    <edge id=":node_1_6_2" function="internal">
        <lane id=":node_1_6_2_0" index="0" speed="25.00" length="4.62" shape="2995.87,203.70 2996.95,203.16 2997.73,202.39 2998.19,201.40 2998.35,200.20"/>
    </edge>
    <edge id=":node_1_6_3" function="internal">
        <lane id=":node_1_6_3_0" index="0" speed="25.00" length="8.55" shape="2995.87,203.70 2998.25,202.93 3000.00,202.68 3001.75,202.93 3004.13,203.70"/>
    </edge>
    <edge id=":node_1_7_0" function="internal">
        <lane id=":node_1_7_0_0" index="0" speed="25.00" length="0.10" shape="2998.35,4.00 2998.35,4.00"/>
    </edge>
    <edge id=":node_1_7_1" function="internal">
        <lane id=":node_1_7_1_0" index="0" speed="25.00" length="2.41" shape="2998.35,4.00 2999.17,2.76 3000.00,2.35"/>
    </edge>
    <edge id=":node_1_7_4" function="internal">
        <lane id=":node_1_7_4_0" index="0" speed="25.00" length="2.41" shape="3000.00,2.35 3000.82,2.76 3001.65,4.00"/>
    </edge>
    <edge id=":node_1_7_2" function="internal">
        <lane id=":node_1_7_2_0" index="0" speed="25.00" length="0.10" shape="3001.65,4.00 3001.65,4.00"/>
    </edge>
    <edge id=":node_1_7_3" function="internal">
        <lane id=":node_1_7_3_0" index="0" speed="25.00" length="2.41" shape="3001.65,4.00 3000.83,5.24 3000.00,5.65"/>
    </edge>
    <edge id=":node_1_7_5" function="internal">
        <lane id=":node_1_7_5_0" index="0" speed="25.00" length="2.41" shape="3000.00,5.65 2999.18,5.24 2998.35,4.00"/>
    </edge>
    <edge id=":node_1_8_0" function="internal">
        <lane id=":node_1_8_0_0" index="0" speed="25.00" length="4.82" shape="2998.35,0.00 2999.17,-1.24 3000.00,-1.65 3000.82,-1.24 3001.65,0.00"/>
    </edge>
    <edge id=":node_2_1_0" function="internal">
        <lane id=":node_2_1_0_0" index="0" speed="36.11" length="0.10" shape="4700.00,242.45 4700.00,242.45"/>
        <lane id=":node_2_1_0_1" index="1" disallow="truck automated" speed="36.11" length="0.10" shape="4700.00,245.75 4700.00,245.75"/>
        <lane id=":node_2_1_0_2" index="2" disallow="delivery truck automated" speed="36.11" length="0.10" shape="4700.00,249.05 4700.00,249.05"/>
        <lane id=":node_2_1_0_3" index="3" speed="36.11" length="0.10" shape="4700.00,252.35 4700.00,252.35"/>
    </edge>
    <edge id=":node_2_2_0" function="internal">
        <lane id=":node_2_2_0_0" index="0" speed="30.55" length="3.53" shape="4893.25,239.15 4894.30,239.14 4895.01,239.07 4895.71,238.90 4896.70,238.56"/>
    </edge>
    <edge id=":node_2_2_1" function="internal">
        <lane id=":node_2_2_1_0" index="0" speed="36.11" length="8.25" shape="4893.25,242.45 4901.50,242.45"/>
        <lane id=":node_2_2_1_1" index="1" disallow="truck automated" speed="36.11" length="8.25" shape="4893.25,245.75 4901.50,245.75"/>
        <lane id=":node_2_2_1_2" index="2" disallow="delivery truck automated" speed="36.11" length="8.25" shape="4893.25,249.05 4901.50,249.05"/>
        <lane id=":node_2_2_1_3" index="3" speed="36.11" length="8.25" shape="4893.25,252.35 4901.50,252.35"/>
    </edge>
    <edge id=":node_2_3_0" function="internal">
        <lane id=":node_2_3_0_0" index="0" speed="30.55" length="3.53" shape="5103.30,238.56 5104.29,238.90 5104.99,239.07 5105.70,239.14 5106.75,239.15"/>
    </edge>
    <edge id=":node_2_3_1" function="internal">
        <lane id=":node_2_3_1_0" index="0" disallow="truck automated" speed="36.11" length="8.25" shape="5098.50,242.45 5106.75,242.45"/>
        <lane id=":node_2_3_1_1" index="1" disallow="delivery truck automated" speed="36.11" length="8.25" shape="5098.50,245.75 5106.75,245.75"/>
        <lane id=":node_2_3_1_2" index="2" speed="36.11" length="8.25" shape="5098.50,249.05 5106.75,249.05"/>
        <lane id=":node_2_3_1_3" index="3" speed="36.11" length="8.25" shape="5098.50,252.35 5106.75,252.35"/>
    </edge>
    <edge id=":node_2_4_0" function="internal">
        <lane id=":node_2_4_0_0" index="0" speed="36.11" length="0.10" shape="5300.00,242.45 5300.00,242.45"/>
        <lane id=":node_2_4_0_1" index="1" disallow="truck automated" speed="36.11" length="0.10" shape="5300.00,245.75 5300.00,245.75"/>
        <lane id=":node_2_4_0_2" index="2" disallow="delivery truck automated" speed="36.11" length="0.10" shape="5300.00,249.05 5300.00,249.05"/>
        <lane id=":node_2_4_0_3" index="3" speed="36.11" length="0.10" shape="5300.00,252.35 5300.00,252.35"/>
    </edge>
    <edge id=":node_2_5_0" function="internal">
        <lane id=":node_2_5_0_0" index="0" speed="36.11" length="0.10" shape="6000.00,242.45 6000.00,242.45"/>
        <lane id=":node_2_5_0_1" index="1" disallow="truck automated" speed="36.11" length="0.10" shape="6000.00,245.75 6000.00,245.75"/>
        <lane id=":node_2_5_0_2" index="2" disallow="delivery truck automated" speed="36.11" length="0.10" shape="6000.00,249.05 6000.00,249.05"/>
        <lane id=":node_2_5_0_3" index="3" speed="36.11" length="0.10" shape="6000.00,252.35 6000.00,252.35"/>
    </edge>
    <edge id=":node_2_6_0" function="internal">
        <lane id=":node_2_6_0_0" index="0" speed="25.00" length="4.62" shape="5001.65,200.20 5001.81,201.40 5002.27,202.39 5003.05,203.16 5004.13,203.70"/>
    </edge>
    <edge id=":node_2_6_1" function="internal">
        <lane id=":node_2_6_1_0" index="0" speed="25.00" length="2.67" shape="5001.65,200.20 5000.83,201.43 5000.00,201.85 4999.77,201.73"/>
    </edge>
    <edge id=":node_2_6_4" function="internal">
        <lane id=":node_2_6_4_0" index="0" speed="25.00" length="2.15" shape="4999.77,201.73 4999.18,201.43 4998.35,200.20"/>
    </edge>
    <edge id=":node_2_6_2" function="internal">
        <lane id=":node_2_6_2_0" index="0" speed="25.00" length="4.62" shape="4995.87,203.70 4996.95,203.16 4997.73,202.39 4998.19,201.40 4998.35,200.20"/>
    </edge>
    <edge id=":node_2_6_3" function="internal">
        <lane id=":node_2_6_3_0" index="0" speed="25.00" length="8.55" shape="4995.87,203.70 4998.25,202.93 5000.00,202.68 5001.75,202.93 5004.13,203.70"/>
    </edge>
    <edge id=":node_2_7_0" function="internal">
        <lane id=":node_2_7_0_0" index="0" speed="25.00" length="0.10" shape="4998.35,4.00 4998.35,4.00"/>
    </edge>
    <edge id=":node_2_7_1" function="internal">
        <lane id=":node_2_7_1_0" index="0" speed="25.00" length="2.41" shape="4998.35,4.00 4999.17,2.76 5000.00,2.35"/>
    </edge>
    <edge id=":node_2_7_4" function="internal">
        <lane id=":node_2_7_4_0" index="0" speed="25.00" length="2.41" shape="5000.00,2.35 5000.82,2.76 5001.65,4.00"/>
    </edge>
    <edge id=":node_2_7_2" function="internal">
        <lane id=":node_2_7_2_0" index="0" speed="25.00" length="0.10" shape="5001.65,4.00 5001.65,4.00"/>
    </edge>
    <edge id=":node_2_7_3" function="internal">
        <lane id=":node_2_7_3_0" index="0" speed="25.00" length="2.41" shape="5001.65,4.00 5000.83,5.24 5000.00,5.65"/>
    </edge>
    <edge id=":node_2_7_5" function="internal">
        <lane id=":node_2_7_5_0" index="0" speed="25.00" length="2.41" shape="5000.00,5.65 4999.18,5.24 4998.35,4.00"/>
    </edge>
    <edge id=":node_2_8_0" function="internal">
        <lane id=":node_2_8_0_0" index="0" speed="25.00" length="4.82" shape="4998.35,0.00 4999.17,-1.24 5000.00,-1.65 5000.82,-1.24 5001.65,0.00"/>
    </edge>

    <edge id="begin" from="node_0_0" to="node_0_1" priority="7">
        <lane id="begin_0" index="0" speed="36.11" length="700.00" shape="0.00,242.45 700.00,242.45"/>
        <lane id="begin_1" index="1" disallow="truck automated" speed="36.11" length="700.00" shape="0.00,245.75 700.00,245.75"/>
        <lane id="begin_2" index="2" disallow="delivery truck automated" speed="36.11" length="700.00" shape="0.00,249.05 700.00,249.05"/>
        <lane id="begin_3" index="3" speed="36.11" length="700.00" shape="0.00,252.35 700.00,252.35"/>
    </edge>
    <edge id="edge_0_1" from="node_0_1" to="edge_0_1-AddedOffRampNode" priority="7">
        <lane id="edge_0_1_0" index="0" speed="36.11" length="48.50" shape="700.00,242.45 748.50,242.45"/>
        <lane id="edge_0_1_1" index="1" disallow="truck automated" speed="36.11" length="48.50" shape="700.00,245.75 748.50,245.75"/>
        <lane id="edge_0_1_2" index="2" disallow="delivery truck automated" speed="36.11" length="48.50" shape="700.00,249.05 748.50,249.05"/>
        <lane id="edge_0_1_3" index="3" speed="36.11" length="48.50" shape="700.00,252.35 748.50,252.35"/>
    </edge>
    <edge id="edge_0_1-AddedOffRampEdge" from="edge_0_1-AddedOffRampNode" to="node_0_2" priority="7">
        <lane id="edge_0_1-AddedOffRampEdge_0" index="0" speed="36.11" length="141.75" shape="751.50,239.15 893.25,239.15"/>
        <lane id="edge_0_1-AddedOffRampEdge_1" index="1" disallow="truck automated" speed="36.11" length="141.75" shape="751.50,242.45 893.25,242.45"/>
        <lane id="edge_0_1-AddedOffRampEdge_2" index="2" disallow="delivery truck automated" speed="36.11" length="141.75" shape="751.50,245.75 893.25,245.75"/>
        <lane id="edge_0_1-AddedOffRampEdge_3" index="3" speed="36.11" length="141.75" shape="751.50,249.05 893.25,249.05"/>
        <lane id="edge_0_1-AddedOffRampEdge_4" index="4" speed="36.11" length="141.75" shape="751.50,252.35 893.25,252.35"/>
    </edge>
    <edge id="edge_0_2" from="node_0_2" to="node_0_3" priority="7">
        <lane id="edge_0_2_0" index="0" speed="36.11" length="197.00" shape="901.50,242.45 1098.50,242.45"/>
        <lane id="edge_0_2_1" index="1" disallow="truck automated" speed="36.11" length="197.00" shape="901.50,245.75 1098.50,245.75"/>
        <lane id="edge_0_2_2" index="2" disallow="delivery truck automated" speed="36.11" length="197.00" shape="901.50,249.05 1098.50,249.05"/>
        <lane id="edge_0_2_3" index="3" speed="36.11" length="197.00" shape="901.50,252.35 1098.50,252.35"/>
    </edge>
    <edge id="edge_0_3" from="edge_0_3-AddedOnRampNode" to="node_0_4" priority="7">
        <lane id="edge_0_3_0" index="0" speed="36.11" length="48.50" shape="1251.50,242.45 1300.00,242.45"/>
        <lane id="edge_0_3_1" index="1" disallow="truck automated" speed="36.11" length="48.50" shape="1251.50,245.75 1300.00,245.75"/>
        <lane id="edge_0_3_2" index="2" disallow="delivery truck automated" speed="36.11" length="48.50" shape="1251.50,249.05 1300.00,249.05"/>
        <lane id="edge_0_3_3" index="3" speed="36.11" length="48.50" shape="1251.50,252.35 1300.00,252.35"/>
    </edge>
    <edge id="edge_0_3-AddedOnRampEdge" from="node_0_3" to="edge_0_3-AddedOnRampNode" priority="7">
        <lane id="edge_0_3-AddedOnRampEdge_0" index="0" speed="36.11" length="141.75" shape="1106.75,239.15 1248.50,239.15"/>
        <lane id="edge_0_3-AddedOnRampEdge_1" index="1" disallow="truck automated" speed="36.11" length="141.75" shape="1106.75,242.45 1248.50,242.45"/>
        <lane id="edge_0_3-AddedOnRampEdge_2" index="2" disallow="delivery truck automated" speed="36.11" length="141.75" shape="1106.75,245.75 1248.50,245.75"/>
        <lane id="edge_0_3-AddedOnRampEdge_3" index="3" speed="36.11" length="141.75" shape="1106.75,249.05 1248.50,249.05"/>
        <lane id="edge_0_3-AddedOnRampEdge_4" index="4" speed="36.11" length="141.75" shape="1106.75,252.35 1248.50,252.35"/>
    </edge>
    <edge id="edge_0_4" from="node_0_4" to="node_0_5" priority="7">
        <lane id="edge_0_4_0" index="0" speed="36.11" length="700.00" shape="1300.00,242.45 2000.00,242.45"/>
        <lane id="edge_0_4_1" index="1" disallow="truck automated" speed="36.11" length="700.00" shape="1300.00,245.75 2000.00,245.75"/>
        <lane id="edge_0_4_2" index="2" disallow="delivery truck automated" speed="36.11" length="700.00" shape="1300.00,249.05 2000.00,249.05"/>
        <lane id="edge_0_4_3" index="3" speed="36.11" length="700.00" shape="1300.00,252.35 2000.00,252.35"/>
    </edge>
    <edge id="edge_0_5" from="node_0_2" to="node_0_6" priority="7" shape="900.00,239.15 1000.00,204.00">
        <lane id="edge_0_5_0" index="0" speed="25.00" length="105.12" shape="896.70,238.56 995.87,203.70"/>
    </edge>
    <edge id="edge_0_6" from="node_0_6" to="node_0_3" priority="7" shape="1000.00,204.00 1100.00,239.15">
        <lane id="edge_0_6_0" index="0" speed="25.00" length="105.12" shape="1004.13,203.70 1103.30,238.56"/>
    </edge>
    <edge id="edge_0_7" from="node_0_6" to="node_0_7" priority="7">
        <lane id="edge_0_7_0" index="0" speed="25.00" length="196.20" shape="998.35,200.20 998.35,4.00"/>
    </edge>
    <edge id="edge_0_8" from="node_0_7" to="node_0_6" priority="7">
        <lane id="edge_0_8_0" index="0" speed="25.00" length="196.20" shape="1001.65,4.00 1001.65,200.20"/>
    </edge>
    <edge id="edge_1_0" from="node_0_5" to="node_1_1" priority="7">
        <lane id="edge_1_0_0" index="0" speed="36.11" length="700.00" shape="2000.00,242.45 2700.00,242.45"/>
        <lane id="edge_1_0_1" index="1" disallow="truck automated" speed="36.11" length="700.00" shape="2000.00,245.75 2700.00,245.75"/>
        <lane id="edge_1_0_2" index="2" disallow="delivery truck automated" speed="36.11" length="700.00" shape="2000.00,249.05 2700.00,249.05"/>
        <lane id="edge_1_0_3" index="3" speed="36.11" length="700.00" shape="2000.00,252.35 2700.00,252.35"/>
    </edge>
    <edge id="edge_1_1" from="node_1_1" to="edge_1_1-AddedOffRampNode" priority="7">
        <lane id="edge_1_1_0" index="0" speed="36.11" length="48.50" shape="2700.00,242.45 2748.50,242.45"/>
        <lane id="edge_1_1_1" index="1" disallow="truck automated" speed="36.11" length="48.50" shape="2700.00,245.75 2748.50,245.75"/>
        <lane id="edge_1_1_2" index="2" disallow="delivery truck automated" speed="36.11" length="48.50" shape="2700.00,249.05 2748.50,249.05"/>
        <lane id="edge_1_1_3" index="3" speed="36.11" length="48.50" shape="2700.00,252.35 2748.50,252.35"/>
    </edge>
    <edge id="edge_1_1-AddedOffRampEdge" from="edge_1_1-AddedOffRampNode" to="node_1_2" priority="7">
        <lane id="edge_1_1-AddedOffRampEdge_0" index="0" speed="36.11" length="141.75" shape="2751.50,239.15 2893.25,239.15"/>
        <lane id="edge_1_1-AddedOffRampEdge_1" index="1" disallow="truck automated" speed="36.11" length="141.75" shape="2751.50,242.45 2893.25,242.45"/>
        <lane id="edge_1_1-AddedOffRampEdge_2" index="2" disallow="delivery truck automated" speed="36.11" length="141.75" shape="2751.50,245.75 2893.25,245.75"/>
        <lane id="edge_1_1-AddedOffRampEdge_3" index="3" speed="36.11" length="141.75" shape="2751.50,249.05 2893.25,249.05"/>
        <lane id="edge_1_1-AddedOffRampEdge_4" index="4" speed="36.11" length="141.75" shape="2751.50,252.35 2893.25,252.35"/>
    </edge>
    <edge id="edge_1_2" from="node_1_2" to="node_1_3" priority="7">
        <lane id="edge_1_2_0" index="0" speed="36.11" length="197.00" shape="2901.50,242.45 3098.50,242.45"/>
        <lane id="edge_1_2_1" index="1" disallow="truck automated" speed="36.11" length="197.00" shape="2901.50,245.75 3098.50,245.75"/>
        <lane id="edge_1_2_2" index="2" disallow="delivery truck automated" speed="36.11" length="197.00" shape="2901.50,249.05 3098.50,249.05"/>
        <lane id="edge_1_2_3" index="3" speed="36.11" length="197.00" shape="2901.50,252.35 3098.50,252.35"/>
    </edge>
    <edge id="edge_1_3" from="edge_1_3-AddedOnRampNode" to="node_1_4" priority="7">